Program Version,EnergyPlus, Version 23.1.0-87ed9199d4, YMD=2026.05.25 23:02,
   ************* Beginning Zone Sizing Calculations
   ** Warning ** SizingPeriod:DesignDay="ANN HTG 99.6% CONDNS DB", range check data.
   **   ~~~   ** ..Humidity Indicator Temperature at Max Temperature=-4.8 > Max DryBulb=-10.0
   **   ~~~   ** ..Humidity Condition Type="WetBulb".
   **   ~~~   ** ..Conditions for day will be set to Relative Humidity = 100%
   ** Warning ** Weather file location will be used rather than entered (IDF) Location object.
   **   ~~~   ** ..Location object=CHN DESIGN_CONDITIONS
   **   ~~~   ** ..Weather File Location=Nanjing Jiangsu CHN CSWD WMO#=582380
   **   ~~~   ** ..due to location differences, Latitude difference=[2.83] degrees, Longitude difference=[4.80] degrees.
   **   ~~~   ** ..Time Zone difference=[0.0] hour(s), Elevation difference=[40.83] percent, [4.90] meters.
   ** Warning ** GetHTSurfaceData: Surfaces with interface to Ground found but no "Ground Temperatures" were input.
   **   ~~~   ** Found first in surface=BLOCK 2 ADMINISTRATION STOREY 0 FLOOR 0001
   **   ~~~   ** Defaults, constant throughout the year of (18.0) will be used.
   ** Warning ** CheckUsedConstructions: There are 80 nominally unused constructions in input.
   **   ~~~   ** For explicit details on each unused construction, use Output:Diagnostics,DisplayExtraWarnings;
   ** Warning ** ManageSizing: For a plant sizing run, there must be at least 1 Sizing:Plant object input. SimulationControl Plant Sizing option ignored.
   ************* Testing Individual Branch Integrity
   ************* All Branches passed integrity testing
   ************* Testing Individual Supply Air Path Integrity
   ************* All Supply Air Paths passed integrity testing
   ************* Testing Individual Return Air Path Integrity
   ************* All Return Air Paths passed integrity testing
   ************* No node connection errors were found.
   ************* Beginning Simulation
   ************* Simulation Error Summary *************
   ** Warning ** The following Report Variables were requested but not generated -- check.rdd file
   **   ~~~   ** Either the IDF did not contain these elements, the variable name is misspelled,
   **   ~~~   ** or the requested variable is an advanced output which requires Output : Diagnostics, DisplayAdvancedReportVariables;
   ************* Key=*, VarName=ZONE GAS EQUIPMENT NATURALGAS ENERGY, Frequency=Hourly
   ************* Key=*, VarName=ZONE OTHER EQUIPMENT LOST HEAT ENERGY, Frequency=Hourly
   ************* Key=*, VarName=ZONE OTHER EQUIPMENT TOTAL HEATING ENERGY, Frequency=Hourly
   ************* Key=*, VarName=ZONE VENTILATION FAN ELECTRICITY ENERGY, Frequency=Hourly
   ************* There are 43 unused schedules in input.
   ************* There are 43 unused week schedules in input.
   ************* There are 78 unused day schedules in input.
   ************* Use Output:Diagnostics,DisplayUnusedSchedules; to see them.
   *************
   ************* ===== Final Error Summary =====
   ************* The following error categories occurred.  Consider correcting or noting.
   ************* Nominally Unused Constructions
   ************* ..The nominally unused constructions warning is provided to alert you to potential conditions that can cause
   ************* ..extra time during simulation. Each construction is calculated by the algorithm indicated in the HeatBalanceAlgorithm
   ************* ..object. You may remove the constructions indicated (when you use the DisplayExtraWarnings option).
   *************
   ************* EnergyPlus Warmup Error Summary. During Warmup: 0 Warning; 0 Severe Errors.
   ************* EnergyPlus Sizing Error Summary. During Sizing: 5 Warning; 0 Severe Errors.
   ************* EnergyPlus Completed Successfully-- 6 Warning; 0 Severe Errors; Elapsed Time=00hr 00min 34.84sec
