Program Version,EnergyPlus, Version 23.1.0-87ed9199d4, YMD=2026.05.25 23:02
! <Version>, Version ID
 Version, 23.1
! <Timesteps per Hour>, #TimeSteps, Minutes per TimeStep {minutes}
 Timesteps per Hour,  4, 15
! <System Convergence Limits>, Minimum System TimeStep {minutes}, Max HVAC Iterations, Minimum Plant Iterations, Maximum Plant Iterations
 System Convergence Limits, 1, 20, 2, 8
! <Simulation Control>, Do Zone Sizing, Do System Sizing, Do Plant Sizing, Do Design Days, Do Weather Simulation, Do HVAC Sizing Simulation
 Simulation Control, Yes, Yes, Yes, No, Yes, No
! <Performance Precision Tradeoffs>, Use Coil Direct Simulation, Zone Radiant Exchange Algorithm, Override Mode, Number of Timestep In Hour, Force Euler Method, Minimum Number of Warmup Days, Force Suppress All Begin Environment Resets, Minimum System Timestep, MaxZoneTempDiff, MaxAllowedDelTemp
 Performance Precision Tradeoffs, No, ScriptF, Normal, 4, No, 1, No, 1.0, 0.300, 2.0000E-003
! <Output Reporting Tolerances>, Tolerance for Time Heating Setpoint Not Met, Tolerance for Zone Cooling Setpoint Not Met Time
 Output Reporting Tolerances, 0.200, 0.200, 
! <Site:GroundTemperature:BuildingSurface>,Jan{C},Feb{C},Mar{C},Apr{C},May{C},Jun{C},Jul{C},Aug{C},Sep{C},Oct{C},Nov{C},Dec{C}
 Site:GroundTemperature:BuildingSurface,  18.00,  18.00,  18.00,  18.00,  18.00,  18.00,  18.00,  18.00,  18.00,  18.00,  18.00,  18.00
! <Site:GroundTemperature:FCfactorMethod>,Jan{C},Feb{C},Mar{C},Apr{C},May{C},Jun{C},Jul{C},Aug{C},Sep{C},Oct{C},Nov{C},Dec{C}
 Site:GroundTemperature:FCfactorMethod,   4.87,   3.81,   5.70,   8.67,  16.42,  22.41,  26.44,  27.67,  25.58,  20.93,  14.72,   8.96
! <Site:GroundTemperature:Shallow>,Jan{C},Feb{C},Mar{C},Apr{C},May{C},Jun{C},Jul{C},Aug{C},Sep{C},Oct{C},Nov{C},Dec{C}
 Site:GroundTemperature:Shallow,  13.00,  13.00,  13.00,  13.00,  13.00,  13.00,  13.00,  13.00,  13.00,  13.00,  13.00,  13.00
! <Site:GroundTemperature:Deep>,Jan{C},Feb{C},Mar{C},Apr{C},May{C},Jun{C},Jul{C},Aug{C},Sep{C},Oct{C},Nov{C},Dec{C}
 Site:GroundTemperature:Deep,  16.00,  16.00,  16.00,  16.00,  16.00,  16.00,  16.00,  16.00,  16.00,  16.00,  16.00,  16.00
! <Site:GroundReflectance>,Jan{dimensionless},Feb{dimensionless},Mar{dimensionless},Apr{dimensionless},May{dimensionless},Jun{dimensionless},Jul{dimensionless},Aug{dimensionless},Sep{dimensionless},Oct{dimensionless},Nov{dimensionless},Dec{dimensionless}
 Site:GroundReflectance,  0.20,  0.20,  0.20,  0.20,  0.20,  0.20,  0.20,  0.20,  0.20,  0.20,  0.20,  0.20
! <Site:GroundReflectance:SnowModifier>, Normal, Daylighting {dimensionless}
 Site:GroundReflectance:SnowModifier,   1.000,   1.000
! <Site:GroundReflectance:Snow>,Jan{dimensionless},Feb{dimensionless},Mar{dimensionless},Apr{dimensionless},May{dimensionless},Jun{dimensionless},Jul{dimensionless},Aug{dimensionless},Sep{dimensionless},Oct{dimensionless},Nov{dimensionless},Dec{dimensionless}
 Site:GroundReflectance:Snow,  0.20,  0.20,  0.20,  0.20,  0.20,  0.20,  0.20,  0.20,  0.20,  0.20,  0.20,  0.20
! <Site:GroundReflectance:Snow:Daylighting>,Jan{dimensionless},Feb{dimensionless},Mar{dimensionless},Apr{dimensionless},May{dimensionless},Jun{dimensionless},Jul{dimensionless},Aug{dimensionless},Sep{dimensionless},Oct{dimensionless},Nov{dimensionless},Dec{dimensionless}
 Site:GroundReflectance:Snow:Daylighting,  0.20,  0.20,  0.20,  0.20,  0.20,  0.20,  0.20,  0.20,  0.20,  0.20,  0.20,  0.20
! <Environment:Weather Station>,Wind Sensor Height Above Ground {m},Wind Speed Profile Exponent {},Wind Speed Profile Boundary Layer Thickness {m},Air Temperature Sensor Height Above Ground {m},Wind Speed Modifier Coefficient-Internal,Temperature Modifier Coefficient-Internal
Environment:Weather Station,10.000,0.140,270.000,1.500,1.586,9.750E-003
! <Site:Location>, Location Name, Latitude {N+/S- Deg}, Longitude {E+/W- Deg},  Time Zone Number {GMT+/-}, Elevation {m},  Standard Pressure at Elevation {Pa}, Standard RhoAir at Elevation
Site:Location,Nanjing Jiangsu CHN CSWD WMO#=582380,32.83,118.80,8.00,7.10,101240,1.2033
! <Site Water Mains Temperature Information>,Calculation Method{},Water Mains Temperature Schedule Name{},Annual Average Outdoor Air Temperature{C},Maximum Difference In Monthly Average Outdoor Air Temperatures{deltaC},Fixed Default Water Mains Temperature{C}
Site Water Mains Temperature Information,FixedDefault,NA,NA,NA,10.0
! <Building Information>, Building Name,North Axis {deg},Terrain,  Loads Convergence Tolerance Value,Temperature Convergence Tolerance Value,  Solar Distribution,Maximum Number of Warmup Days,Minimum Number of Warmup Days
 Building Information,Building_1,0.000,City,4.00000E-002,0.40000,FullExterior,25,6
! <Inside Convection Algorithm>, Algorithm {Simple | TARP | CeilingDiffuser | AdaptiveConvectionAlgorithm}
Inside Convection Algorithm,TARP
! <Outside Convection Algorithm>, Algorithm {SimpleCombined | TARP | MoWitt | DOE-2 | AdaptiveConvectionAlgorithm}
Outside Convection Algorithm,DOE-2
! <Sky Radiance Distribution>, Value {Anisotropic}
Sky Radiance Distribution,Anisotropic
! <Zone Air Solution Algorithm>, Algorithm {ThirdOrderBackwardDifference | AnalyticalSolution | EulerMethod}, Space Heat Balance Sizing, Space Heat Balance Simulation
 Zone Air Solution Algorithm, ThirdOrderBackwardDifference, No, No
! <Zone Air Carbon Dioxide Balance Simulation>, Simulation {Yes/No}, Carbon Dioxide Concentration
 Zone Air Carbon Dioxide Balance Simulation, No,N/A
! <Zone Air Generic Contaminant Balance Simulation>, Simulation {Yes/No}, Generic Contaminant Concentration
 Zone Air Generic Contaminant Balance Simulation, No,N/A
! <Zone Air Mass Flow Balance Simulation>, Enforce Mass Balance, Adjust Zone Mixing and Return {AdjustMixingOnly | AdjustReturnOnly | AdjustMixingThenReturn | AdjustReturnThenMixing | None}, Adjust Zone Infiltration {AddInfiltration | AdjustInfiltration | None}, Infiltration Zones {MixingSourceZonesOnly | AllZones}
 Zone Air Mass Flow Balance Simulation, No,N/A,N/A,N/A
! <HVACSystemRootFindingAlgorithm>, Value {RegulaFalsi | Bisection | BisectionThenRegulaFalsi | RegulaFalsiThenBisection}
 HVACSystemRootFindingAlgorithm, RegulaFalsi
! <Environment:Site Atmospheric Variation>,Wind Speed Profile Exponent {},Wind Speed Profile Boundary Layer Thickness {m},Air Temperature Gradient Coefficient {K/m}
Environment:Site Atmospheric Variation,0.330,460.000,6.500000E-003
! <Surface Geometry>,Starting Corner,Vertex Input Direction,Coordinate System,Daylight Reference Point Coordinate System,Rectangular (Simple) Surface Coordinate System
 Surface Geometry,UpperLeftCorner,Counterclockwise,RelativeCoordinateSystem,RelativeCoordinateSystem,RelativeToZoneOrigin
! <Surface Heat Transfer Algorithm>, Value {CTF - ConductionTransferFunction | EMPD - MoisturePenetrationDepthConductionTransferFunction | CondFD - ConductionFiniteDifference | HAMT - CombinedHeatAndMoistureFiniteElement} - Description,Inside Surface Max Temperature Limit{C}, Surface Convection Coefficient Lower Limit {W/m2-K}, Surface Convection Coefficient Upper Limit {W/m2-K}
Surface Heat Transfer Algorithm, CTF - ConductionTransferFunction,200,0.10,1000.0
! <Shading Summary>, Number of Fixed Detached Shades, Number of Building Detached Shades, Number of Attached Shades
 Shading Summary,0,0,0
! <Zone Summary>, Number of Zones, Number of Zone Surfaces, Number of SubSurfaces
 Zone Summary,11,484,231
! <Zone Information>,Zone Name,North Axis {deg},Origin X-Coordinate {m},Origin Y-Coordinate {m},Origin Z-Coordinate {m},Centroid X-Coordinate {m},Centroid Y-Coordinate {m},Centroid Z-Coordinate {m},Type,Zone Multiplier,Zone List Multiplier,Minimum X {m},Maximum X {m},Minimum Y {m},Maximum Y {m},Minimum Z {m},Maximum Z {m},Ceiling Height {m},Volume {m3},Zone Inside Convection Algorithm {Simple-Detailed-CeilingDiffuser-TrombeWall},Zone Outside Convection Algorithm {Simple-Detailed-Tarp-MoWitt-DOE-2-BLAST}, Floor Area {m2},Exterior Gross Wall Area {m2},Exterior Net Wall Area {m2},Exterior Window Area {m2}, Number of Surfaces, Number of SubSurfaces, Number of Shading SubSurfaces,  Part of Total Building Area
 Zone Information, BLOCK 2 ADMINISTRATION STOREY 0,0.0,0.00,0.00,0.00,668306.71,3546982.04,1.45,1,1,1,668252.42,668344.82,3546951.11,3547011.26,0.00,2.91,2.91,11914.60,TARP,DOE-2,4095.64,700.75,296.70,404.05,23,21,0,Yes
 Zone Information, BLOCK 2 ADMINISTRATION STOREY 1,0.0,0.00,0.00,0.00,668306.71,3546982.04,4.36,1,1,1,668252.42,668344.82,3546951.11,3547011.26,2.91,5.82,2.91,11914.60,TARP,DOE-2,4095.64,700.75,296.70,404.05,23,21,0,Yes
 Zone Information, BLOCK 2 ADMINISTRATION STOREY 2,0.0,0.00,0.00,0.00,668306.71,3546982.04,7.27,1,1,1,668252.42,668344.82,3546951.11,3547011.26,5.82,8.73,2.91,11914.60,TARP,DOE-2,4095.64,700.75,296.70,404.05,23,21,0,Yes
 Zone Information, BLOCK 2 ADMINISTRATION STOREY 3,0.0,0.00,0.00,0.00,668306.71,3546982.04,10.18,1,1,1,668252.42,668344.82,3546951.11,3547011.26,8.73,11.64,2.91,11914.60,TARP,DOE-2,4095.64,700.75,296.70,404.05,23,21,0,Yes
 Zone Information, BLOCK 2 ADMINISTRATION STOREY 4,0.0,0.00,0.00,0.00,668306.71,3546982.04,13.09,1,1,1,668252.42,668344.82,3546951.11,3547011.26,11.64,14.55,2.91,11914.60,TARP,DOE-2,4095.64,700.75,296.70,404.05,23,21,0,Yes
 Zone Information, BLOCK 2 ADMINISTRATION STOREY 5,0.0,0.00,0.00,0.00,668306.71,3546982.04,16.00,1,1,1,668252.42,668344.82,3546951.11,3547011.26,14.55,17.45,2.91,11914.60,TARP,DOE-2,4095.64,700.75,296.70,404.05,23,21,0,Yes
 Zone Information, BLOCK 2 ADMINISTRATION STOREY 6,0.0,0.00,0.00,0.00,668306.71,3546982.04,18.91,1,1,1,668252.42,668344.82,3546951.11,3547011.26,17.45,20.36,2.91,11914.60,TARP,DOE-2,4095.64,700.75,296.70,404.05,23,21,0,Yes
 Zone Information, BLOCK 2 ADMINISTRATION STOREY 7,0.0,0.00,0.00,0.00,668306.71,3546982.04,21.82,1,1,1,668252.42,668344.82,3546951.11,3547011.26,20.36,23.27,2.91,11914.60,TARP,DOE-2,4095.64,700.75,296.70,404.05,23,21,0,Yes
 Zone Information, BLOCK 2 ADMINISTRATION STOREY 8,0.0,0.00,0.00,0.00,668306.71,3546982.04,24.73,1,1,1,668252.42,668344.82,3546951.11,3547011.26,23.27,26.18,2.91,11914.60,TARP,DOE-2,4095.64,700.75,296.70,404.05,23,21,0,Yes
 Zone Information, BLOCK 2 ADMINISTRATION STOREY 9,0.0,0.00,0.00,0.00,668306.71,3546982.04,27.64,1,1,1,668252.42,668344.82,3546951.11,3547011.26,26.18,29.09,2.91,11914.60,TARP,DOE-2,4095.64,700.75,296.70,404.05,23,21,0,Yes
 Zone Information, BLOCK 2 ADMINISTRATION STOREY 10,0.0,0.00,0.00,0.00,668306.71,3546982.04,30.55,1,1,1,668252.42,668344.82,3546951.11,3547011.26,29.09,32.00,2.91,11914.60,TARP,DOE-2,4095.64,700.75,296.70,404.05,23,21,0,Yes
! <Zone Internal Gains Nominal>,Zone Name, Floor Area {m2},# Occupants,Area per Occupant {m2/person},Occupant per Area {person/m2},Interior Lighting {W/m2},Electric Load {W/m2},Gas Load {W/m2},Other Load {W/m2},Hot Water Eq {W/m2},Steam Equipment {W/m2},Sum Loads per Area {W/m2},Outdoor Controlled Baseboard Heat
 Zone Internal Gains Nominal, BLOCK 2 ADMINISTRATION STOREY 0,4095.64,512.0,8.000,0.125,8.000,15.000,0.000,0.000,0.000,0.000,23.000,No
 Zone Internal Gains Nominal, BLOCK 2 ADMINISTRATION STOREY 1,4095.64,512.0,8.000,0.125,8.000,15.000,0.000,0.000,0.000,0.000,23.000,No
 Zone Internal Gains Nominal, BLOCK 2 ADMINISTRATION STOREY 2,4095.64,512.0,8.000,0.125,8.000,15.000,0.000,0.000,0.000,0.000,23.000,No
 Zone Internal Gains Nominal, BLOCK 2 ADMINISTRATION STOREY 3,4095.64,512.0,8.000,0.125,8.000,15.000,0.000,0.000,0.000,0.000,23.000,No
 Zone Internal Gains Nominal, BLOCK 2 ADMINISTRATION STOREY 4,4095.64,512.0,8.000,0.125,8.000,15.000,0.000,0.000,0.000,0.000,23.000,No
 Zone Internal Gains Nominal, BLOCK 2 ADMINISTRATION STOREY 5,4095.64,512.0,8.000,0.125,8.000,15.000,0.000,0.000,0.000,0.000,23.000,No
 Zone Internal Gains Nominal, BLOCK 2 ADMINISTRATION STOREY 6,4095.64,512.0,8.000,0.125,8.000,15.000,0.000,0.000,0.000,0.000,23.000,No
 Zone Internal Gains Nominal, BLOCK 2 ADMINISTRATION STOREY 7,4095.64,512.0,8.000,0.125,8.000,15.000,0.000,0.000,0.000,0.000,23.000,No
 Zone Internal Gains Nominal, BLOCK 2 ADMINISTRATION STOREY 8,4095.64,512.0,8.000,0.125,8.000,15.000,0.000,0.000,0.000,0.000,23.000,No
 Zone Internal Gains Nominal, BLOCK 2 ADMINISTRATION STOREY 9,4095.64,512.0,8.000,0.125,8.000,15.000,0.000,0.000,0.000,0.000,23.000,No
 Zone Internal Gains Nominal, BLOCK 2 ADMINISTRATION STOREY 10,4095.64,512.0,8.000,0.125,8.000,15.000,0.000,0.000,0.000,0.000,23.000,No
! <People Internal Gains Nominal>,Name,Schedule Name,Zone Name,Zone Floor Area {m2},# Zone Occupants,Number of People {},People/Floor Area {person/m2},Floor Area per person {m2/person},Fraction Radiant,Fraction Convected,Sensible Fraction Calculation,Activity level,ASHRAE 55 Warnings,Carbon Dioxide Generation Rate,Nominal Minimum Number of People,Nominal Maximum Number of People
 People Internal Gains Nominal, BLOCK 2 ADMINISTRATION STOREY 0_SPACE PEOPLE_FOR_ADMINISTRATION,SEASONALSCHEDULE_SCHEDULE_ADMINISTRATION_PEOPLE,BLOCK 2 ADMINISTRATION STOREY 0,4095.64,512.0,512.0,0.125,8.000,0.300,0.700,AutoCalculate,SEASONALSCHEDULE_SCHEDULE_ADMINISTRATION_ACTIVITY,No,3.8200E-008,0,486
 People Internal Gains Nominal, BLOCK 2 ADMINISTRATION STOREY 1_SPACE PEOPLE_FOR_ADMINISTRATION,SEASONALSCHEDULE_SCHEDULE_ADMINISTRATION_PEOPLE,BLOCK 2 ADMINISTRATION STOREY 1,4095.64,512.0,512.0,0.125,8.000,0.300,0.700,AutoCalculate,SEASONALSCHEDULE_SCHEDULE_ADMINISTRATION_ACTIVITY,No,3.8200E-008,0,486
 People Internal Gains Nominal, BLOCK 2 ADMINISTRATION STOREY 2_SPACE PEOPLE_FOR_ADMINISTRATION,SEASONALSCHEDULE_SCHEDULE_ADMINISTRATION_PEOPLE,BLOCK 2 ADMINISTRATION STOREY 2,4095.64,512.0,512.0,0.125,8.000,0.300,0.700,AutoCalculate,SEASONALSCHEDULE_SCHEDULE_ADMINISTRATION_ACTIVITY,No,3.8200E-008,0,486
 People Internal Gains Nominal, BLOCK 2 ADMINISTRATION STOREY 3_SPACE PEOPLE_FOR_ADMINISTRATION,SEASONALSCHEDULE_SCHEDULE_ADMINISTRATION_PEOPLE,BLOCK 2 ADMINISTRATION STOREY 3,4095.64,512.0,512.0,0.125,8.000,0.300,0.700,AutoCalculate,SEASONALSCHEDULE_SCHEDULE_ADMINISTRATION_ACTIVITY,No,3.8200E-008,0,486
 People Internal Gains Nominal, BLOCK 2 ADMINISTRATION STOREY 4_SPACE PEOPLE_FOR_ADMINISTRATION,SEASONALSCHEDULE_SCHEDULE_ADMINISTRATION_PEOPLE,BLOCK 2 ADMINISTRATION STOREY 4,4095.64,512.0,512.0,0.125,8.000,0.300,0.700,AutoCalculate,SEASONALSCHEDULE_SCHEDULE_ADMINISTRATION_ACTIVITY,No,3.8200E-008,0,486
 People Internal Gains Nominal, BLOCK 2 ADMINISTRATION STOREY 5_SPACE PEOPLE_FOR_ADMINISTRATION,SEASONALSCHEDULE_SCHEDULE_ADMINISTRATION_PEOPLE,BLOCK 2 ADMINISTRATION STOREY 5,4095.64,512.0,512.0,0.125,8.000,0.300,0.700,AutoCalculate,SEASONALSCHEDULE_SCHEDULE_ADMINISTRATION_ACTIVITY,No,3.8200E-008,0,486
 People Internal Gains Nominal, BLOCK 2 ADMINISTRATION STOREY 6_SPACE PEOPLE_FOR_ADMINISTRATION,SEASONALSCHEDULE_SCHEDULE_ADMINISTRATION_PEOPLE,BLOCK 2 ADMINISTRATION STOREY 6,4095.64,512.0,512.0,0.125,8.000,0.300,0.700,AutoCalculate,SEASONALSCHEDULE_SCHEDULE_ADMINISTRATION_ACTIVITY,No,3.8200E-008,0,486
 People Internal Gains Nominal, BLOCK 2 ADMINISTRATION STOREY 7_SPACE PEOPLE_FOR_ADMINISTRATION,SEASONALSCHEDULE_SCHEDULE_ADMINISTRATION_PEOPLE,BLOCK 2 ADMINISTRATION STOREY 7,4095.64,512.0,512.0,0.125,8.000,0.300,0.700,AutoCalculate,SEASONALSCHEDULE_SCHEDULE_ADMINISTRATION_ACTIVITY,No,3.8200E-008,0,486
 People Internal Gains Nominal, BLOCK 2 ADMINISTRATION STOREY 8_SPACE PEOPLE_FOR_ADMINISTRATION,SEASONALSCHEDULE_SCHEDULE_ADMINISTRATION_PEOPLE,BLOCK 2 ADMINISTRATION STOREY 8,4095.64,512.0,512.0,0.125,8.000,0.300,0.700,AutoCalculate,SEASONALSCHEDULE_SCHEDULE_ADMINISTRATION_ACTIVITY,No,3.8200E-008,0,486
 People Internal Gains Nominal, BLOCK 2 ADMINISTRATION STOREY 9_SPACE PEOPLE_FOR_ADMINISTRATION,SEASONALSCHEDULE_SCHEDULE_ADMINISTRATION_PEOPLE,BLOCK 2 ADMINISTRATION STOREY 9,4095.64,512.0,512.0,0.125,8.000,0.300,0.700,AutoCalculate,SEASONALSCHEDULE_SCHEDULE_ADMINISTRATION_ACTIVITY,No,3.8200E-008,0,486
 People Internal Gains Nominal, BLOCK 2 ADMINISTRATION STOREY 10_SPACE PEOPLE_FOR_ADMINISTRATION,SEASONALSCHEDULE_SCHEDULE_ADMINISTRATION_PEOPLE,BLOCK 2 ADMINISTRATION STOREY 10,4095.64,512.0,512.0,0.125,8.000,0.300,0.700,AutoCalculate,SEASONALSCHEDULE_SCHEDULE_ADMINISTRATION_ACTIVITY,No,3.8200E-008,0,486
! <Lights Internal Gains Nominal>,Name,Schedule Name,Zone Name,Zone Floor Area {m2},# Zone Occupants,Lighting Level {W},Lights/Floor Area {W/m2},Lights per person {W/person},Fraction Return Air,Fraction Radiant,Fraction Short Wave,Fraction Convected,Fraction Replaceable,End-Use Category,Nominal Minimum Lighting Level {W},Nominal Maximum Lighting Level {W}
 Lights Internal Gains Nominal, BLOCK 2 ADMINISTRATION STOREY 0_SPACE LIGHT_FOR_ADMINISTRATION,SEASONALSCHEDULE_ADMINISTRATION_LIGHTING,BLOCK 2 ADMINISTRATION STOREY 0,4095.64,512.0,32765.146,8.000,64.000,0.000,0.320,0.250,0.430,1.000,General,6553.029,31126.889
 Lights Internal Gains Nominal, BLOCK 2 ADMINISTRATION STOREY 1_SPACE LIGHT_FOR_ADMINISTRATION,SEASONALSCHEDULE_ADMINISTRATION_LIGHTING,BLOCK 2 ADMINISTRATION STOREY 1,4095.64,512.0,32765.146,8.000,64.000,0.000,0.320,0.250,0.430,1.000,General,6553.029,31126.889
 Lights Internal Gains Nominal, BLOCK 2 ADMINISTRATION STOREY 2_SPACE LIGHT_FOR_ADMINISTRATION,SEASONALSCHEDULE_ADMINISTRATION_LIGHTING,BLOCK 2 ADMINISTRATION STOREY 2,4095.64,512.0,32765.146,8.000,64.000,0.000,0.320,0.250,0.430,1.000,General,6553.029,31126.889
 Lights Internal Gains Nominal, BLOCK 2 ADMINISTRATION STOREY 3_SPACE LIGHT_FOR_ADMINISTRATION,SEASONALSCHEDULE_ADMINISTRATION_LIGHTING,BLOCK 2 ADMINISTRATION STOREY 3,4095.64,512.0,32765.146,8.000,64.000,0.000,0.320,0.250,0.430,1.000,General,6553.029,31126.889
 Lights Internal Gains Nominal, BLOCK 2 ADMINISTRATION STOREY 4_SPACE LIGHT_FOR_ADMINISTRATION,SEASONALSCHEDULE_ADMINISTRATION_LIGHTING,BLOCK 2 ADMINISTRATION STOREY 4,4095.64,512.0,32765.146,8.000,64.000,0.000,0.320,0.250,0.430,1.000,General,6553.029,31126.889
 Lights Internal Gains Nominal, BLOCK 2 ADMINISTRATION STOREY 5_SPACE LIGHT_FOR_ADMINISTRATION,SEASONALSCHEDULE_ADMINISTRATION_LIGHTING,BLOCK 2 ADMINISTRATION STOREY 5,4095.64,512.0,32765.146,8.000,64.000,0.000,0.320,0.250,0.430,1.000,General,6553.029,31126.889
 Lights Internal Gains Nominal, BLOCK 2 ADMINISTRATION STOREY 6_SPACE LIGHT_FOR_ADMINISTRATION,SEASONALSCHEDULE_ADMINISTRATION_LIGHTING,BLOCK 2 ADMINISTRATION STOREY 6,4095.64,512.0,32765.146,8.000,64.000,0.000,0.320,0.250,0.430,1.000,General,6553.029,31126.889
 Lights Internal Gains Nominal, BLOCK 2 ADMINISTRATION STOREY 7_SPACE LIGHT_FOR_ADMINISTRATION,SEASONALSCHEDULE_ADMINISTRATION_LIGHTING,BLOCK 2 ADMINISTRATION STOREY 7,4095.64,512.0,32765.146,8.000,64.000,0.000,0.320,0.250,0.430,1.000,General,6553.029,31126.889
 Lights Internal Gains Nominal, BLOCK 2 ADMINISTRATION STOREY 8_SPACE LIGHT_FOR_ADMINISTRATION,SEASONALSCHEDULE_ADMINISTRATION_LIGHTING,BLOCK 2 ADMINISTRATION STOREY 8,4095.64,512.0,32765.146,8.000,64.000,0.000,0.320,0.250,0.430,1.000,General,6553.029,31126.889
 Lights Internal Gains Nominal, BLOCK 2 ADMINISTRATION STOREY 9_SPACE LIGHT_FOR_ADMINISTRATION,SEASONALSCHEDULE_ADMINISTRATION_LIGHTING,BLOCK 2 ADMINISTRATION STOREY 9,4095.64,512.0,32765.146,8.000,64.000,0.000,0.320,0.250,0.430,1.000,General,6553.029,31126.889
 Lights Internal Gains Nominal, BLOCK 2 ADMINISTRATION STOREY 10_SPACE LIGHT_FOR_ADMINISTRATION,SEASONALSCHEDULE_ADMINISTRATION_LIGHTING,BLOCK 2 ADMINISTRATION STOREY 10,4095.64,512.0,32765.146,8.000,64.000,0.000,0.320,0.250,0.430,1.000,General,6553.029,31126.889
! <ElectricEquipment Internal Gains Nominal>,Name,Schedule Name,Zone Name,Zone Floor Area {m2},# Zone Occupants,Equipment Level {W},Equipment/Floor Area {W/m2},Equipment per person {W/person},Fraction Latent,Fraction Radiant,Fraction Lost,Fraction Convected,End-Use SubCategory,Nominal Minimum Equipment Level {W},Nominal Maximum Equipment Level {W}
 ElectricEquipment Internal Gains Nominal, BLOCK 2 ADMINISTRATION STOREY 0_SPACE EQUIPMENT_FOR_ADMINISTRATION,SEASONALSCHEDULE_SCHEDULE_ADMINISTRATION_EQUIPMENT,BLOCK 2 ADMINISTRATION STOREY 0,4095.64,512.0,61434.649,15.000,120.000,0.000,0.000,0.000,1.000,Electric Equipment,12286.930,58362.916
 ElectricEquipment Internal Gains Nominal, BLOCK 2 ADMINISTRATION STOREY 1_SPACE EQUIPMENT_FOR_ADMINISTRATION,SEASONALSCHEDULE_SCHEDULE_ADMINISTRATION_EQUIPMENT,BLOCK 2 ADMINISTRATION STOREY 1,4095.64,512.0,61434.649,15.000,120.000,0.000,0.000,0.000,1.000,Electric Equipment,12286.930,58362.916
 ElectricEquipment Internal Gains Nominal, BLOCK 2 ADMINISTRATION STOREY 2_SPACE EQUIPMENT_FOR_ADMINISTRATION,SEASONALSCHEDULE_SCHEDULE_ADMINISTRATION_EQUIPMENT,BLOCK 2 ADMINISTRATION STOREY 2,4095.64,512.0,61434.649,15.000,120.000,0.000,0.000,0.000,1.000,Electric Equipment,12286.930,58362.916
 ElectricEquipment Internal Gains Nominal, BLOCK 2 ADMINISTRATION STOREY 3_SPACE EQUIPMENT_FOR_ADMINISTRATION,SEASONALSCHEDULE_SCHEDULE_ADMINISTRATION_EQUIPMENT,BLOCK 2 ADMINISTRATION STOREY 3,4095.64,512.0,61434.649,15.000,120.000,0.000,0.000,0.000,1.000,Electric Equipment,12286.930,58362.916
 ElectricEquipment Internal Gains Nominal, BLOCK 2 ADMINISTRATION STOREY 4_SPACE EQUIPMENT_FOR_ADMINISTRATION,SEASONALSCHEDULE_SCHEDULE_ADMINISTRATION_EQUIPMENT,BLOCK 2 ADMINISTRATION STOREY 4,4095.64,512.0,61434.649,15.000,120.000,0.000,0.000,0.000,1.000,Electric Equipment,12286.930,58362.916
 ElectricEquipment Internal Gains Nominal, BLOCK 2 ADMINISTRATION STOREY 5_SPACE EQUIPMENT_FOR_ADMINISTRATION,SEASONALSCHEDULE_SCHEDULE_ADMINISTRATION_EQUIPMENT,BLOCK 2 ADMINISTRATION STOREY 5,4095.64,512.0,61434.649,15.000,120.000,0.000,0.000,0.000,1.000,Electric Equipment,12286.930,58362.916
 ElectricEquipment Internal Gains Nominal, BLOCK 2 ADMINISTRATION STOREY 6_SPACE EQUIPMENT_FOR_ADMINISTRATION,SEASONALSCHEDULE_SCHEDULE_ADMINISTRATION_EQUIPMENT,BLOCK 2 ADMINISTRATION STOREY 6,4095.64,512.0,61434.649,15.000,120.000,0.000,0.000,0.000,1.000,Electric Equipment,12286.930,58362.916
 ElectricEquipment Internal Gains Nominal, BLOCK 2 ADMINISTRATION STOREY 7_SPACE EQUIPMENT_FOR_ADMINISTRATION,SEASONALSCHEDULE_SCHEDULE_ADMINISTRATION_EQUIPMENT,BLOCK 2 ADMINISTRATION STOREY 7,4095.64,512.0,61434.649,15.000,120.000,0.000,0.000,0.000,1.000,Electric Equipment,12286.930,58362.916
 ElectricEquipment Internal Gains Nominal, BLOCK 2 ADMINISTRATION STOREY 8_SPACE EQUIPMENT_FOR_ADMINISTRATION,SEASONALSCHEDULE_SCHEDULE_ADMINISTRATION_EQUIPMENT,BLOCK 2 ADMINISTRATION STOREY 8,4095.64,512.0,61434.649,15.000,120.000,0.000,0.000,0.000,1.000,Electric Equipment,12286.930,58362.916
 ElectricEquipment Internal Gains Nominal, BLOCK 2 ADMINISTRATION STOREY 9_SPACE EQUIPMENT_FOR_ADMINISTRATION,SEASONALSCHEDULE_SCHEDULE_ADMINISTRATION_EQUIPMENT,BLOCK 2 ADMINISTRATION STOREY 9,4095.64,512.0,61434.649,15.000,120.000,0.000,0.000,0.000,1.000,Electric Equipment,12286.930,58362.916
 ElectricEquipment Internal Gains Nominal, BLOCK 2 ADMINISTRATION STOREY 10_SPACE EQUIPMENT_FOR_ADMINISTRATION,SEASONALSCHEDULE_SCHEDULE_ADMINISTRATION_EQUIPMENT,BLOCK 2 ADMINISTRATION STOREY 10,4095.64,512.0,61434.649,15.000,120.000,0.000,0.000,0.000,1.000,Electric Equipment,12286.930,58362.916
! <Shadowing/Sun Position Calculations Annual Simulations>, Shading Calculation Method, Shading Calculation Update Frequency Method, Shading Calculation Update Frequency {days}, Maximum Figures in Shadow Overlap Calculations {}, Polygon Clipping Algorithm, Pixel Counting Resolution, Sky Diffuse Modeling Algorithm, Output External Shading Calculation Results, Disable Self-Shading Within Shading Zone Groups, Disable Self-Shading From Shading Zone Groups to Other Zones
Shadowing/Sun Position Calculations Annual Simulations,PolygonClipping,Periodic,30,15000,SutherlandHodgman,512,SimpleSkyDiffuseModeling,No,No,No
! <Enclosure/Window Adjacency Daylighting Counts>, Enclosure Name, Number of Exterior Windows, Number of Exterior Windows in Adjacent Enclosures
Enclosure/Window Adjacency Daylighting Counts, BLOCK 2 ADMINISTRATION STOREY 0_SPACE,21,0
Enclosure/Window Adjacency Daylighting Counts, BLOCK 2 ADMINISTRATION STOREY 1_SPACE,21,0
Enclosure/Window Adjacency Daylighting Counts, BLOCK 2 ADMINISTRATION STOREY 2_SPACE,21,0
Enclosure/Window Adjacency Daylighting Counts, BLOCK 2 ADMINISTRATION STOREY 3_SPACE,21,0
Enclosure/Window Adjacency Daylighting Counts, BLOCK 2 ADMINISTRATION STOREY 4_SPACE,21,0
Enclosure/Window Adjacency Daylighting Counts, BLOCK 2 ADMINISTRATION STOREY 5_SPACE,21,0
Enclosure/Window Adjacency Daylighting Counts, BLOCK 2 ADMINISTRATION STOREY 6_SPACE,21,0
Enclosure/Window Adjacency Daylighting Counts, BLOCK 2 ADMINISTRATION STOREY 7_SPACE,21,0
Enclosure/Window Adjacency Daylighting Counts, BLOCK 2 ADMINISTRATION STOREY 8_SPACE,21,0
Enclosure/Window Adjacency Daylighting Counts, BLOCK 2 ADMINISTRATION STOREY 9_SPACE,21,0
Enclosure/Window Adjacency Daylighting Counts, BLOCK 2 ADMINISTRATION STOREY 10_SPACE,21,0
! <Enclosure/Window Adjacency Daylighting Matrix>, Enclosure Name, Number of Adjacent Enclosures with Windows,Adjacent Enclosure Names - 1st 100 (max)
Enclosure/Window Adjacency Daylighting Matrix, BLOCK 2 ADMINISTRATION STOREY 0_SPACE,0
Enclosure/Window Adjacency Daylighting Matrix, BLOCK 2 ADMINISTRATION STOREY 1_SPACE,0
Enclosure/Window Adjacency Daylighting Matrix, BLOCK 2 ADMINISTRATION STOREY 2_SPACE,0
Enclosure/Window Adjacency Daylighting Matrix, BLOCK 2 ADMINISTRATION STOREY 3_SPACE,0
Enclosure/Window Adjacency Daylighting Matrix, BLOCK 2 ADMINISTRATION STOREY 4_SPACE,0
Enclosure/Window Adjacency Daylighting Matrix, BLOCK 2 ADMINISTRATION STOREY 5_SPACE,0
Enclosure/Window Adjacency Daylighting Matrix, BLOCK 2 ADMINISTRATION STOREY 6_SPACE,0
Enclosure/Window Adjacency Daylighting Matrix, BLOCK 2 ADMINISTRATION STOREY 7_SPACE,0
Enclosure/Window Adjacency Daylighting Matrix, BLOCK 2 ADMINISTRATION STOREY 8_SPACE,0
Enclosure/Window Adjacency Daylighting Matrix, BLOCK 2 ADMINISTRATION STOREY 9_SPACE,0
Enclosure/Window Adjacency Daylighting Matrix, BLOCK 2 ADMINISTRATION STOREY 10_SPACE,0
! <RoomAir Model>, Zone Name, Mixing/Mundt/UCSDDV/UCSDCV/UCSDUFI/UCSDUFE/User Defined
RoomAir Model,BLOCK 2 ADMINISTRATION STOREY 0,Mixing/Well-Stirred
RoomAir Model,BLOCK 2 ADMINISTRATION STOREY 1,Mixing/Well-Stirred
RoomAir Model,BLOCK 2 ADMINISTRATION STOREY 2,Mixing/Well-Stirred
RoomAir Model,BLOCK 2 ADMINISTRATION STOREY 3,Mixing/Well-Stirred
RoomAir Model,BLOCK 2 ADMINISTRATION STOREY 4,Mixing/Well-Stirred
RoomAir Model,BLOCK 2 ADMINISTRATION STOREY 5,Mixing/Well-Stirred
RoomAir Model,BLOCK 2 ADMINISTRATION STOREY 6,Mixing/Well-Stirred
RoomAir Model,BLOCK 2 ADMINISTRATION STOREY 7,Mixing/Well-Stirred
RoomAir Model,BLOCK 2 ADMINISTRATION STOREY 8,Mixing/Well-Stirred
RoomAir Model,BLOCK 2 ADMINISTRATION STOREY 9,Mixing/Well-Stirred
RoomAir Model,BLOCK 2 ADMINISTRATION STOREY 10,Mixing/Well-Stirred
! <AirflowNetwork Model:Control>, No Multizone or Distribution/Multizone with Distribution/Multizone without Distribution/Multizone with Distribution only during Fan Operation
AirflowNetwork Model:Control,NoMultizoneOrDistribution
! <Zone Volume Capacitance Multiplier>, Sensible Heat Capacity Multiplier, Moisture Capacity Multiplier, Carbon Dioxide Capacity Multiplier, Generic Contaminant Capacity Multiplier
Zone Volume Capacitance Multiplier,   1.000 ,   1.000,   1.000,   1.000
! <Load Timesteps in Zone Design Calculation Averaging Window>, Value
 Load Timesteps in Zone Design Calculation Averaging Window,    4
! <Heating Sizing Factor Information>, Sizing Factor ID, Value
 Heating Sizing Factor Information, Global,   1.0000    
! <Cooling Sizing Factor Information>, Sizing Factor ID, Value
 Cooling Sizing Factor Information, Global,   1.0000    
! <Sky Daylight Factors>, Sky Type, MonthAndDay, Daylighting Control Name, Enclosure Name, Window Name, Reference Point, Daylight Factor
 Sky Daylight Factors,Clear Sky,01/21,DLIGHT_BLOCK 2 ADMINISTRATION STOREY 0,BLOCK 2 ADMINISTRATION STOREY 0_SPACE,BLOCK 2 ADMINISTRATION STOREY 0 WALL 0001WINDOW,RPOINT_BLOCK 2 ADMINISTRATION STOREY 0,2.2531E-004
 Sky Daylight Factors,Clear Turbid Sky,01/21,DLIGHT_BLOCK 2 ADMINISTRATION STOREY 0,BLOCK 2 ADMINISTRATION STOREY 0_SPACE,BLOCK 2 ADMINISTRATION STOREY 0 WALL 0001WINDOW,RPOINT_BLOCK 2 ADMINISTRATION STOREY 0,1.8131E-004
 Sky Daylight Factors,Intermediate Sky,01/21,DLIGHT_BLOCK 2 ADMINISTRATION STOREY 0,BLOCK 2 ADMINISTRATION STOREY 0_SPACE,BLOCK 2 ADMINISTRATION STOREY 0 WALL 0001WINDOW,RPOINT_BLOCK 2 ADMINISTRATION STOREY 0,1.4637E-004
 Sky Daylight Factors,Overcast Sky,01/21,DLIGHT_BLOCK 2 ADMINISTRATION STOREY 0,BLOCK 2 ADMINISTRATION STOREY 0_SPACE,BLOCK 2 ADMINISTRATION STOREY 0 WALL 0001WINDOW,RPOINT_BLOCK 2 ADMINISTRATION STOREY 0,1.8728E-004
 Sky Daylight Factors,Clear Sky,01/21,DLIGHT_BLOCK 2 ADMINISTRATION STOREY 0,BLOCK 2 ADMINISTRATION STOREY 0_SPACE,BLOCK 2 ADMINISTRATION STOREY 0 WALL 0002WINDOW,RPOINT_BLOCK 2 ADMINISTRATION STOREY 0,2.5857E-004
 Sky Daylight Factors,Clear Turbid Sky,01/21,DLIGHT_BLOCK 2 ADMINISTRATION STOREY 0,BLOCK 2 ADMINISTRATION STOREY 0_SPACE,BLOCK 2 ADMINISTRATION STOREY 0 WALL 0002WINDOW,RPOINT_BLOCK 2 ADMINISTRATION STOREY 0,2.0438E-004
 Sky Daylight Factors,Intermediate Sky,01/21,DLIGHT_BLOCK 2 ADMINISTRATION STOREY 0,BLOCK 2 ADMINISTRATION STOREY 0_SPACE,BLOCK 2 ADMINISTRATION STOREY 0 WALL 0002WINDOW,RPOINT_BLOCK 2 ADMINISTRATION STOREY 0,1.5116E-004
 Sky Daylight Factors,Overcast Sky,01/21,DLIGHT_BLOCK 2 ADMINISTRATION STOREY 0,BLOCK 2 ADMINISTRATION STOREY 0_SPACE,BLOCK 2 ADMINISTRATION STOREY 0 WALL 0002WINDOW,RPOINT_BLOCK 2 ADMINISTRATION STOREY 0,1.9992E-004
 Sky Daylight Factors,Clear Sky,01/21,DLIGHT_BLOCK 2 ADMINISTRATION STOREY 0,BLOCK 2 ADMINISTRATION STOREY 0_SPACE,BLOCK 2 ADMINISTRATION STOREY 0 WALL 0003WINDOW,RPOINT_BLOCK 2 ADMINISTRATION STOREY 0,3.2084E-004
 Sky Daylight Factors,Clear Turbid Sky,01/21,DLIGHT_BLOCK 2 ADMINISTRATION STOREY 0,BLOCK 2 ADMINISTRATION STOREY 0_SPACE,BLOCK 2 ADMINISTRATION STOREY 0 WALL 0003WINDOW,RPOINT_BLOCK 2 ADMINISTRATION STOREY 0,2.4892E-004
 Sky Daylight Factors,Intermediate Sky,01/21,DLIGHT_BLOCK 2 ADMINISTRATION STOREY 0,BLOCK 2 ADMINISTRATION STOREY 0_SPACE,BLOCK 2 ADMINISTRATION STOREY 0 WALL 0003WINDOW,RPOINT_BLOCK 2 ADMINISTRATION STOREY 0,1.6676E-004
 Sky Daylight Factors,Overcast Sky,01/21,DLIGHT_BLOCK 2 ADMINISTRATION STOREY 0,BLOCK 2 ADMINISTRATION STOREY 0_SPACE,BLOCK 2 ADMINISTRATION STOREY 0 WALL 0003WINDOW,RPOINT_BLOCK 2 ADMINISTRATION STOREY 0,2.3326E-004
 Sky Daylight Factors,Clear Sky,01/21,DLIGHT_BLOCK 2 ADMINISTRATION STOREY 0,BLOCK 2 ADMINISTRATION STOREY 0_SPACE,BLOCK 2 ADMINISTRATION STOREY 0 WALL 0004WINDOW,RPOINT_BLOCK 2 ADMINISTRATION STOREY 0,4.3404E-004
 Sky Daylight Factors,Clear Turbid Sky,01/21,DLIGHT_BLOCK 2 ADMINISTRATION STOREY 0,BLOCK 2 ADMINISTRATION STOREY 0_SPACE,BLOCK 2 ADMINISTRATION STOREY 0 WALL 0004WINDOW,RPOINT_BLOCK 2 ADMINISTRATION STOREY 0,3.3577E-004
 Sky Daylight Factors,Intermediate Sky,01/21,DLIGHT_BLOCK 2 ADMINISTRATION STOREY 0,BLOCK 2 ADMINISTRATION STOREY 0_SPACE,BLOCK 2 ADMINISTRATION STOREY 0 WALL 0004WINDOW,RPOINT_BLOCK 2 ADMINISTRATION STOREY 0,2.2218E-004
 Sky Daylight Factors,Overcast Sky,01/21,DLIGHT_BLOCK 2 ADMINISTRATION STOREY 0,BLOCK 2 ADMINISTRATION STOREY 0_SPACE,BLOCK 2 ADMINISTRATION STOREY 0 WALL 0004WINDOW,RPOINT_BLOCK 2 ADMINISTRATION STOREY 0,3.1974E-004
 Sky Daylight Factors,Clear Sky,01/21,DLIGHT_BLOCK 2 ADMINISTRATION STOREY 0,BLOCK 2 ADMINISTRATION STOREY 0_SPACE,BLOCK 2 ADMINISTRATION STOREY 0 WALL 0005WINDOW,RPOINT_BLOCK 2 ADMINISTRATION STOREY 0,2.9894E-004
 Sky Daylight Factors,Clear Turbid Sky,01/21,DLIGHT_BLOCK 2 ADMINISTRATION STOREY 0,BLOCK 2 ADMINISTRATION STOREY 0_SPACE,BLOCK 2 ADMINISTRATION STOREY 0 WALL 0005WINDOW,RPOINT_BLOCK 2 ADMINISTRATION STOREY 0,2.3471E-004
 Sky Daylight Factors,Intermediate Sky,01/21,DLIGHT_BLOCK 2 ADMINISTRATION STOREY 0,BLOCK 2 ADMINISTRATION STOREY 0_SPACE,BLOCK 2 ADMINISTRATION STOREY 0 WALL 0005WINDOW,RPOINT_BLOCK 2 ADMINISTRATION STOREY 0,1.6889E-004
 Sky Daylight Factors,Overcast Sky,01/21,DLIGHT_BLOCK 2 ADMINISTRATION STOREY 0,BLOCK 2 ADMINISTRATION STOREY 0_SPACE,BLOCK 2 ADMINISTRATION STOREY 0 WALL 0005WINDOW,RPOINT_BLOCK 2 ADMINISTRATION STOREY 0,2.4551E-004
 Sky Daylight Factors,Clear Sky,01/21,DLIGHT_BLOCK 2 ADMINISTRATION STOREY 0,BLOCK 2 ADMINISTRATION STOREY 0_SPACE,BLOCK 2 ADMINISTRATION STOREY 0 WALL 0006WINDOW,RPOINT_BLOCK 2 ADMINISTRATION STOREY 0,2.9220E-004
 Sky Daylight Factors,Clear Turbid Sky,01/21,DLIGHT_BLOCK 2 ADMINISTRATION STOREY 0,BLOCK 2 ADMINISTRATION STOREY 0_SPACE,BLOCK 2 ADMINISTRATION STOREY 0 WALL 0006WINDOW,RPOINT_BLOCK 2 ADMINISTRATION STOREY 0,2.3250E-004
 Sky Daylight Factors,Intermediate Sky,01/21,DLIGHT_BLOCK 2 ADMINISTRATION STOREY 0,BLOCK 2 ADMINISTRATION STOREY 0_SPACE,BLOCK 2 ADMINISTRATION STOREY 0 WALL 0006WINDOW,RPOINT_BLOCK 2 ADMINISTRATION STOREY 0,1.7918E-004
 Sky Daylight Factors,Overcast Sky,01/21,DLIGHT_BLOCK 2 ADMINISTRATION STOREY 0,BLOCK 2 ADMINISTRATION STOREY 0_SPACE,BLOCK 2 ADMINISTRATION STOREY 0 WALL 0006WINDOW,RPOINT_BLOCK 2 ADMINISTRATION STOREY 0,2.5877E-004
 Sky Daylight Factors,Clear Sky,01/21,DLIGHT_BLOCK 2 ADMINISTRATION STOREY 0,BLOCK 2 ADMINISTRATION STOREY 0_SPACE,BLOCK 2 ADMINISTRATION STOREY 0 WALL 0007WINDOW,RPOINT_BLOCK 2 ADMINISTRATION STOREY 0,3.8787E-004
 Sky Daylight Factors,Clear Turbid Sky,01/21,DLIGHT_BLOCK 2 ADMINISTRATION STOREY 0,BLOCK 2 ADMINISTRATION STOREY 0_SPACE,BLOCK 2 ADMINISTRATION STOREY 0 WALL 0007WINDOW,RPOINT_BLOCK 2 ADMINISTRATION STOREY 0,3.1508E-004
 Sky Daylight Factors,Intermediate Sky,01/21,DLIGHT_BLOCK 2 ADMINISTRATION STOREY 0,BLOCK 2 ADMINISTRATION STOREY 0_SPACE,BLOCK 2 ADMINISTRATION STOREY 0 WALL 0007WINDOW,RPOINT_BLOCK 2 ADMINISTRATION STOREY 0,2.6835E-004
 Sky Daylight Factors,Overcast Sky,01/21,DLIGHT_BLOCK 2 ADMINISTRATION STOREY 0,BLOCK 2 ADMINISTRATION STOREY 0_SPACE,BLOCK 2 ADMINISTRATION STOREY 0 WALL 0007WINDOW,RPOINT_BLOCK 2 ADMINISTRATION STOREY 0,3.5720E-004
 Sky Daylight Factors,Clear Sky,01/21,DLIGHT_BLOCK 2 ADMINISTRATION STOREY 0,BLOCK 2 ADMINISTRATION STOREY 0_SPACE,BLOCK 2 ADMINISTRATION STOREY 0 WALL 0008WINDOW,RPOINT_BLOCK 2 ADMINISTRATION STOREY 0,1.0695E-004
 Sky Daylight Factors,Clear Turbid Sky,01/21,DLIGHT_BLOCK 2 ADMINISTRATION STOREY 0,BLOCK 2 ADMINISTRATION STOREY 0_SPACE,BLOCK 2 ADMINISTRATION STOREY 0 WALL 0008WINDOW,RPOINT_BLOCK 2 ADMINISTRATION STOREY 0,9.2370E-005
 Sky Daylight Factors,Intermediate Sky,01/21,DLIGHT_BLOCK 2 ADMINISTRATION STOREY 0,BLOCK 2 ADMINISTRATION STOREY 0_SPACE,BLOCK 2 ADMINISTRATION STOREY 0 WALL 0008WINDOW,RPOINT_BLOCK 2 ADMINISTRATION STOREY 0,8.9509E-005
 Sky Daylight Factors,Overcast Sky,01/21,DLIGHT_BLOCK 2 ADMINISTRATION STOREY 0,BLOCK 2 ADMINISTRATION STOREY 0_SPACE,BLOCK 2 ADMINISTRATION STOREY 0 WALL 0008WINDOW,RPOINT_BLOCK 2 ADMINISTRATION STOREY 0,9.1301E-005
 Sky Daylight Factors,Clear Sky,01/21,DLIGHT_BLOCK 2 ADMINISTRATION STOREY 0,BLOCK 2 ADMINISTRATION STOREY 0_SPACE,BLOCK 2 ADMINISTRATION STOREY 0 WALL 0009WINDOW,RPOINT_BLOCK 2 ADMINISTRATION STOREY 0,2.9432E-004
 Sky Daylight Factors,Clear Turbid Sky,01/21,DLIGHT_BLOCK 2 ADMINISTRATION STOREY 0,BLOCK 2 ADMINISTRATION STOREY 0_SPACE,BLOCK 2 ADMINISTRATION STOREY 0 WALL 0009WINDOW,RPOINT_BLOCK 2 ADMINISTRATION STOREY 0,2.8231E-004
 Sky Daylight Factors,Intermediate Sky,01/21,DLIGHT_BLOCK 2 ADMINISTRATION STOREY 0,BLOCK 2 ADMINISTRATION STOREY 0_SPACE,BLOCK 2 ADMINISTRATION STOREY 0 WALL 0009WINDOW,RPOINT_BLOCK 2 ADMINISTRATION STOREY 0,2.5012E-004
 Sky Daylight Factors,Overcast Sky,01/21,DLIGHT_BLOCK 2 ADMINISTRATION STOREY 0,BLOCK 2 ADMINISTRATION STOREY 0_SPACE,BLOCK 2 ADMINISTRATION STOREY 0 WALL 0009WINDOW,RPOINT_BLOCK 2 ADMINISTRATION STOREY 0,1.8310E-004
 Sky Daylight Factors,Clear Sky,01/21,DLIGHT_BLOCK 2 ADMINISTRATION STOREY 0,BLOCK 2 ADMINISTRATION STOREY 0_SPACE,BLOCK 2 ADMINISTRATION STOREY 0 WALL 0010WINDOW,RPOINT_BLOCK 2 ADMINISTRATION STOREY 0,1.0528E-003
 Sky Daylight Factors,Clear Turbid Sky,01/21,DLIGHT_BLOCK 2 ADMINISTRATION STOREY 0,BLOCK 2 ADMINISTRATION STOREY 0_SPACE,BLOCK 2 ADMINISTRATION STOREY 0 WALL 0010WINDOW,RPOINT_BLOCK 2 ADMINISTRATION STOREY 0,1.0792E-003
 Sky Daylight Factors,Intermediate Sky,01/21,DLIGHT_BLOCK 2 ADMINISTRATION STOREY 0,BLOCK 2 ADMINISTRATION STOREY 0_SPACE,BLOCK 2 ADMINISTRATION STOREY 0 WALL 0010WINDOW,RPOINT_BLOCK 2 ADMINISTRATION STOREY 0,8.1762E-004
 Sky Daylight Factors,Overcast Sky,01/21,DLIGHT_BLOCK 2 ADMINISTRATION STOREY 0,BLOCK 2 ADMINISTRATION STOREY 0_SPACE,BLOCK 2 ADMINISTRATION STOREY 0 WALL 0010WINDOW,RPOINT_BLOCK 2 ADMINISTRATION STOREY 0,4.5874E-004
 Sky Daylight Factors,Clear Sky,01/21,DLIGHT_BLOCK 2 ADMINISTRATION STOREY 0,BLOCK 2 ADMINISTRATION STOREY 0_SPACE,BLOCK 2 ADMINISTRATION STOREY 0 WALL 0011WINDOW,RPOINT_BLOCK 2 ADMINISTRATION STOREY 0,2.1870E-003
 Sky Daylight Factors,Clear Turbid Sky,01/21,DLIGHT_BLOCK 2 ADMINISTRATION STOREY 0,BLOCK 2 ADMINISTRATION STOREY 0_SPACE,BLOCK 2 ADMINISTRATION STOREY 0 WALL 0011WINDOW,RPOINT_BLOCK 2 ADMINISTRATION STOREY 0,2.2745E-003
 Sky Daylight Factors,Intermediate Sky,01/21,DLIGHT_BLOCK 2 ADMINISTRATION STOREY 0,BLOCK 2 ADMINISTRATION STOREY 0_SPACE,BLOCK 2 ADMINISTRATION STOREY 0 WALL 0011WINDOW,RPOINT_BLOCK 2 ADMINISTRATION STOREY 0,1.5226E-003
 Sky Daylight Factors,Overcast Sky,01/21,DLIGHT_BLOCK 2 ADMINISTRATION STOREY 0,BLOCK 2 ADMINISTRATION STOREY 0_SPACE,BLOCK 2 ADMINISTRATION STOREY 0 WALL 0011WINDOW,RPOINT_BLOCK 2 ADMINISTRATION STOREY 0,7.2028E-004
 Sky Daylight Factors,Clear Sky,01/21,DLIGHT_BLOCK 2 ADMINISTRATION STOREY 0,BLOCK 2 ADMINISTRATION STOREY 0_SPACE,BLOCK 2 ADMINISTRATION STOREY 0 WALL 0012WINDOW,RPOINT_BLOCK 2 ADMINISTRATION STOREY 0,1.1707E-003
 Sky Daylight Factors,Clear Turbid Sky,01/21,DLIGHT_BLOCK 2 ADMINISTRATION STOREY 0,BLOCK 2 ADMINISTRATION STOREY 0_SPACE,BLOCK 2 ADMINISTRATION STOREY 0 WALL 0012WINDOW,RPOINT_BLOCK 2 ADMINISTRATION STOREY 0,1.2418E-003
 Sky Daylight Factors,Intermediate Sky,01/21,DLIGHT_BLOCK 2 ADMINISTRATION STOREY 0,BLOCK 2 ADMINISTRATION STOREY 0_SPACE,BLOCK 2 ADMINISTRATION STOREY 0 WALL 0012WINDOW,RPOINT_BLOCK 2 ADMINISTRATION STOREY 0,7.8382E-004
 Sky Daylight Factors,Overcast Sky,01/21,DLIGHT_BLOCK 2 ADMINISTRATION STOREY 0,BLOCK 2 ADMINISTRATION STOREY 0_SPACE,BLOCK 2 ADMINISTRATION STOREY 0 WALL 0012WINDOW,RPOINT_BLOCK 2 ADMINISTRATION STOREY 0,3.5530E-004
 Sky Daylight Factors,Clear Sky,01/21,DLIGHT_BLOCK 2 ADMINISTRATION STOREY 0,BLOCK 2 ADMINISTRATION STOREY 0_SPACE,BLOCK 2 ADMINISTRATION STOREY 0 WALL 0013WINDOW,RPOINT_BLOCK 2 ADMINISTRATION STOREY 0,9.4929E-004
 Sky Daylight Factors,Clear Turbid Sky,01/21,DLIGHT_BLOCK 2 ADMINISTRATION STOREY 0,BLOCK 2 ADMINISTRATION STOREY 0_SPACE,BLOCK 2 ADMINISTRATION STOREY 0 WALL 0013WINDOW,RPOINT_BLOCK 2 ADMINISTRATION STOREY 0,1.0080E-003
 Sky Daylight Factors,Intermediate Sky,01/21,DLIGHT_BLOCK 2 ADMINISTRATION STOREY 0,BLOCK 2 ADMINISTRATION STOREY 0_SPACE,BLOCK 2 ADMINISTRATION STOREY 0 WALL 0013WINDOW,RPOINT_BLOCK 2 ADMINISTRATION STOREY 0,6.7956E-004
 Sky Daylight Factors,Overcast Sky,01/21,DLIGHT_BLOCK 2 ADMINISTRATION STOREY 0,BLOCK 2 ADMINISTRATION STOREY 0_SPACE,BLOCK 2 ADMINISTRATION STOREY 0 WALL 0013WINDOW,RPOINT_BLOCK 2 ADMINISTRATION STOREY 0,3.2062E-004
 Sky Daylight Factors,Clear Sky,01/21,DLIGHT_BLOCK 2 ADMINISTRATION STOREY 0,BLOCK 2 ADMINISTRATION STOREY 0_SPACE,BLOCK 2 ADMINISTRATION STOREY 0 WALL 0014WINDOW,RPOINT_BLOCK 2 ADMINISTRATION STOREY 0,5.1318E-004
 Sky Daylight Factors,Clear Turbid Sky,01/21,DLIGHT_BLOCK 2 ADMINISTRATION STOREY 0,BLOCK 2 ADMINISTRATION STOREY 0_SPACE,BLOCK 2 ADMINISTRATION STOREY 0 WALL 0014WINDOW,RPOINT_BLOCK 2 ADMINISTRATION STOREY 0,5.4480E-004
 Sky Daylight Factors,Intermediate Sky,01/21,DLIGHT_BLOCK 2 ADMINISTRATION STOREY 0,BLOCK 2 ADMINISTRATION STOREY 0_SPACE,BLOCK 2 ADMINISTRATION STOREY 0 WALL 0014WINDOW,RPOINT_BLOCK 2 ADMINISTRATION STOREY 0,3.7960E-004
 Sky Daylight Factors,Overcast Sky,01/21,DLIGHT_BLOCK 2 ADMINISTRATION STOREY 0,BLOCK 2 ADMINISTRATION STOREY 0_SPACE,BLOCK 2 ADMINISTRATION STOREY 0 WALL 0014WINDOW,RPOINT_BLOCK 2 ADMINISTRATION STOREY 0,1.8519E-004
 Sky Daylight Factors,Clear Sky,01/21,DLIGHT_BLOCK 2 ADMINISTRATION STOREY 0,BLOCK 2 ADMINISTRATION STOREY 0_SPACE,BLOCK 2 ADMINISTRATION STOREY 0 WALL 0015WINDOW,RPOINT_BLOCK 2 ADMINISTRATION STOREY 0,4.5573E-004
 Sky Daylight Factors,Clear Turbid Sky,01/21,DLIGHT_BLOCK 2 ADMINISTRATION STOREY 0,BLOCK 2 ADMINISTRATION STOREY 0_SPACE,BLOCK 2 ADMINISTRATION STOREY 0 WALL 0015WINDOW,RPOINT_BLOCK 2 ADMINISTRATION STOREY 0,4.7918E-004
 Sky Daylight Factors,Intermediate Sky,01/21,DLIGHT_BLOCK 2 ADMINISTRATION STOREY 0,BLOCK 2 ADMINISTRATION STOREY 0_SPACE,BLOCK 2 ADMINISTRATION STOREY 0 WALL 0015WINDOW,RPOINT_BLOCK 2 ADMINISTRATION STOREY 0,3.4597E-004
 Sky Daylight Factors,Overcast Sky,01/21,DLIGHT_BLOCK 2 ADMINISTRATION STOREY 0,BLOCK 2 ADMINISTRATION STOREY 0_SPACE,BLOCK 2 ADMINISTRATION STOREY 0 WALL 0015WINDOW,RPOINT_BLOCK 2 ADMINISTRATION STOREY 0,1.7930E-004
 Sky Daylight Factors,Clear Sky,01/21,DLIGHT_BLOCK 2 ADMINISTRATION STOREY 0,BLOCK 2 ADMINISTRATION STOREY 0_SPACE,BLOCK 2 ADMINISTRATION STOREY 0 WALL 0016WINDOW,RPOINT_BLOCK 2 ADMINISTRATION STOREY 0,4.0225E-004
 Sky Daylight Factors,Clear Turbid Sky,01/21,DLIGHT_BLOCK 2 ADMINISTRATION STOREY 0,BLOCK 2 ADMINISTRATION STOREY 0_SPACE,BLOCK 2 ADMINISTRATION STOREY 0 WALL 0016WINDOW,RPOINT_BLOCK 2 ADMINISTRATION STOREY 0,4.1756E-004
 Sky Daylight Factors,Intermediate Sky,01/21,DLIGHT_BLOCK 2 ADMINISTRATION STOREY 0,BLOCK 2 ADMINISTRATION STOREY 0_SPACE,BLOCK 2 ADMINISTRATION STOREY 0 WALL 0016WINDOW,RPOINT_BLOCK 2 ADMINISTRATION STOREY 0,3.1401E-004
 Sky Daylight Factors,Overcast Sky,01/21,DLIGHT_BLOCK 2 ADMINISTRATION STOREY 0,BLOCK 2 ADMINISTRATION STOREY 0_SPACE,BLOCK 2 ADMINISTRATION STOREY 0 WALL 0016WINDOW,RPOINT_BLOCK 2 ADMINISTRATION STOREY 0,1.7441E-004
 Sky Daylight Factors,Clear Sky,01/21,DLIGHT_BLOCK 2 ADMINISTRATION STOREY 0,BLOCK 2 ADMINISTRATION STOREY 0_SPACE,BLOCK 2 ADMINISTRATION STOREY 0 WALL 0017WINDOW,RPOINT_BLOCK 2 ADMINISTRATION STOREY 0,1.8202E-004
 Sky Daylight Factors,Clear Turbid Sky,01/21,DLIGHT_BLOCK 2 ADMINISTRATION STOREY 0,BLOCK 2 ADMINISTRATION STOREY 0_SPACE,BLOCK 2 ADMINISTRATION STOREY 0 WALL 0017WINDOW,RPOINT_BLOCK 2 ADMINISTRATION STOREY 0,1.7597E-004
 Sky Daylight Factors,Intermediate Sky,01/21,DLIGHT_BLOCK 2 ADMINISTRATION STOREY 0,BLOCK 2 ADMINISTRATION STOREY 0_SPACE,BLOCK 2 ADMINISTRATION STOREY 0 WALL 0017WINDOW,RPOINT_BLOCK 2 ADMINISTRATION STOREY 0,1.5519E-004
 Sky Daylight Factors,Overcast Sky,01/21,DLIGHT_BLOCK 2 ADMINISTRATION STOREY 0,BLOCK 2 ADMINISTRATION STOREY 0_SPACE,BLOCK 2 ADMINISTRATION STOREY 0 WALL 0017WINDOW,RPOINT_BLOCK 2 ADMINISTRATION STOREY 0,1.1050E-004
 Sky Daylight Factors,Clear Sky,01/21,DLIGHT_BLOCK 2 ADMINISTRATION STOREY 0,BLOCK 2 ADMINISTRATION STOREY 0_SPACE,BLOCK 2 ADMINISTRATION STOREY 0 WALL 0018WINDOW,RPOINT_BLOCK 2 ADMINISTRATION STOREY 0,1.6361E-004
 Sky Daylight Factors,Clear Turbid Sky,01/21,DLIGHT_BLOCK 2 ADMINISTRATION STOREY 0,BLOCK 2 ADMINISTRATION STOREY 0_SPACE,BLOCK 2 ADMINISTRATION STOREY 0 WALL 0018WINDOW,RPOINT_BLOCK 2 ADMINISTRATION STOREY 0,1.4793E-004
 Sky Daylight Factors,Intermediate Sky,01/21,DLIGHT_BLOCK 2 ADMINISTRATION STOREY 0,BLOCK 2 ADMINISTRATION STOREY 0_SPACE,BLOCK 2 ADMINISTRATION STOREY 0 WALL 0018WINDOW,RPOINT_BLOCK 2 ADMINISTRATION STOREY 0,1.4283E-004
 Sky Daylight Factors,Overcast Sky,01/21,DLIGHT_BLOCK 2 ADMINISTRATION STOREY 0,BLOCK 2 ADMINISTRATION STOREY 0_SPACE,BLOCK 2 ADMINISTRATION STOREY 0 WALL 0018WINDOW,RPOINT_BLOCK 2 ADMINISTRATION STOREY 0,1.2400E-004
 Sky Daylight Factors,Clear Sky,01/21,DLIGHT_BLOCK 2 ADMINISTRATION STOREY 0,BLOCK 2 ADMINISTRATION STOREY 0_SPACE,BLOCK 2 ADMINISTRATION STOREY 0 WALL 0019WINDOW,RPOINT_BLOCK 2 ADMINISTRATION STOREY 0,1.2212E-004
 Sky Daylight Factors,Clear Turbid Sky,01/21,DLIGHT_BLOCK 2 ADMINISTRATION STOREY 0,BLOCK 2 ADMINISTRATION STOREY 0_SPACE,BLOCK 2 ADMINISTRATION STOREY 0 WALL 0019WINDOW,RPOINT_BLOCK 2 ADMINISTRATION STOREY 0,1.0418E-004
 Sky Daylight Factors,Intermediate Sky,01/21,DLIGHT_BLOCK 2 ADMINISTRATION STOREY 0,BLOCK 2 ADMINISTRATION STOREY 0_SPACE,BLOCK 2 ADMINISTRATION STOREY 0 WALL 0019WINDOW,RPOINT_BLOCK 2 ADMINISTRATION STOREY 0,1.0036E-004
 Sky Daylight Factors,Overcast Sky,01/21,DLIGHT_BLOCK 2 ADMINISTRATION STOREY 0,BLOCK 2 ADMINISTRATION STOREY 0_SPACE,BLOCK 2 ADMINISTRATION STOREY 0 WALL 0019WINDOW,RPOINT_BLOCK 2 ADMINISTRATION STOREY 0,1.0627E-004
 Sky Daylight Factors,Clear Sky,01/21,DLIGHT_BLOCK 2 ADMINISTRATION STOREY 0,BLOCK 2 ADMINISTRATION STOREY 0_SPACE,BLOCK 2 ADMINISTRATION STOREY 0 WALL 0020WINDOW,RPOINT_BLOCK 2 ADMINISTRATION STOREY 0,1.4266E-004
 Sky Daylight Factors,Clear Turbid Sky,01/21,DLIGHT_BLOCK 2 ADMINISTRATION STOREY 0,BLOCK 2 ADMINISTRATION STOREY 0_SPACE,BLOCK 2 ADMINISTRATION STOREY 0 WALL 0020WINDOW,RPOINT_BLOCK 2 ADMINISTRATION STOREY 0,1.1920E-004
 Sky Daylight Factors,Intermediate Sky,01/21,DLIGHT_BLOCK 2 ADMINISTRATION STOREY 0,BLOCK 2 ADMINISTRATION STOREY 0_SPACE,BLOCK 2 ADMINISTRATION STOREY 0 WALL 0020WINDOW,RPOINT_BLOCK 2 ADMINISTRATION STOREY 0,1.1034E-004
 Sky Daylight Factors,Overcast Sky,01/21,DLIGHT_BLOCK 2 ADMINISTRATION STOREY 0,BLOCK 2 ADMINISTRATION STOREY 0_SPACE,BLOCK 2 ADMINISTRATION STOREY 0 WALL 0020WINDOW,RPOINT_BLOCK 2 ADMINISTRATION STOREY 0,1.2546E-004
 Sky Daylight Factors,Clear Sky,01/21,DLIGHT_BLOCK 2 ADMINISTRATION STOREY 0,BLOCK 2 ADMINISTRATION STOREY 0_SPACE,BLOCK 2 ADMINISTRATION STOREY 0 WALL 0021WINDOW,RPOINT_BLOCK 2 ADMINISTRATION STOREY 0,1.8952E-004
 Sky Daylight Factors,Clear Turbid Sky,01/21,DLIGHT_BLOCK 2 ADMINISTRATION STOREY 0,BLOCK 2 ADMINISTRATION STOREY 0_SPACE,BLOCK 2 ADMINISTRATION STOREY 0 WALL 0021WINDOW,RPOINT_BLOCK 2 ADMINISTRATION STOREY 0,1.5535E-004
 Sky Daylight Factors,Intermediate Sky,01/21,DLIGHT_BLOCK 2 ADMINISTRATION STOREY 0,BLOCK 2 ADMINISTRATION STOREY 0_SPACE,BLOCK 2 ADMINISTRATION STOREY 0 WALL 0021WINDOW,RPOINT_BLOCK 2 ADMINISTRATION STOREY 0,1.3555E-004
 Sky Daylight Factors,Overcast Sky,01/21,DLIGHT_BLOCK 2 ADMINISTRATION STOREY 0,BLOCK 2 ADMINISTRATION STOREY 0_SPACE,BLOCK 2 ADMINISTRATION STOREY 0 WALL 0021WINDOW,RPOINT_BLOCK 2 ADMINISTRATION STOREY 0,1.6445E-004
 Sky Daylight Factors,Clear Sky,01/21,DLIGHT_BLOCK 2 ADMINISTRATION STOREY 1,BLOCK 2 ADMINISTRATION STOREY 1_SPACE,BLOCK 2 ADMINISTRATION STOREY 1 WALL 0001WINDOW,RPOINT_BLOCK 2 ADMINISTRATION STOREY 1,2.1557E-004
 Sky Daylight Factors,Clear Turbid Sky,01/21,DLIGHT_BLOCK 2 ADMINISTRATION STOREY 1,BLOCK 2 ADMINISTRATION STOREY 1_SPACE,BLOCK 2 ADMINISTRATION STOREY 1 WALL 0001WINDOW,RPOINT_BLOCK 2 ADMINISTRATION STOREY 1,1.7401E-004
 Sky Daylight Factors,Intermediate Sky,01/21,DLIGHT_BLOCK 2 ADMINISTRATION STOREY 1,BLOCK 2 ADMINISTRATION STOREY 1_SPACE,BLOCK 2 ADMINISTRATION STOREY 1 WALL 0001WINDOW,RPOINT_BLOCK 2 ADMINISTRATION STOREY 1,1.4219E-004
 Sky Daylight Factors,Overcast Sky,01/21,DLIGHT_BLOCK 2 ADMINISTRATION STOREY 1,BLOCK 2 ADMINISTRATION STOREY 1_SPACE,BLOCK 2 ADMINISTRATION STOREY 1 WALL 0001WINDOW,RPOINT_BLOCK 2 ADMINISTRATION STOREY 1,1.8267E-004
 Sky Daylight Factors,Clear Sky,01/21,DLIGHT_BLOCK 2 ADMINISTRATION STOREY 1,BLOCK 2 ADMINISTRATION STOREY 1_SPACE,BLOCK 2 ADMINISTRATION STOREY 1 WALL 0002WINDOW,RPOINT_BLOCK 2 ADMINISTRATION STOREY 1,2.4460E-004
 Sky Daylight Factors,Clear Turbid Sky,01/21,DLIGHT_BLOCK 2 ADMINISTRATION STOREY 1,BLOCK 2 ADMINISTRATION STOREY 1_SPACE,BLOCK 2 ADMINISTRATION STOREY 1 WALL 0002WINDOW,RPOINT_BLOCK 2 ADMINISTRATION STOREY 1,1.9412E-004
 Sky Daylight Factors,Intermediate Sky,01/21,DLIGHT_BLOCK 2 ADMINISTRATION STOREY 1,BLOCK 2 ADMINISTRATION STOREY 1_SPACE,BLOCK 2 ADMINISTRATION STOREY 1 WALL 0002WINDOW,RPOINT_BLOCK 2 ADMINISTRATION STOREY 1,1.4624E-004
 Sky Daylight Factors,Overcast Sky,01/21,DLIGHT_BLOCK 2 ADMINISTRATION STOREY 1,BLOCK 2 ADMINISTRATION STOREY 1_SPACE,BLOCK 2 ADMINISTRATION STOREY 1 WALL 0002WINDOW,RPOINT_BLOCK 2 ADMINISTRATION STOREY 1,1.9388E-004
 Sky Daylight Factors,Clear Sky,01/21,DLIGHT_BLOCK 2 ADMINISTRATION STOREY 1,BLOCK 2 ADMINISTRATION STOREY 1_SPACE,BLOCK 2 ADMINISTRATION STOREY 1 WALL 0003WINDOW,RPOINT_BLOCK 2 ADMINISTRATION STOREY 1,3.0106E-004
 Sky Daylight Factors,Clear Turbid Sky,01/21,DLIGHT_BLOCK 2 ADMINISTRATION STOREY 1,BLOCK 2 ADMINISTRATION STOREY 1_SPACE,BLOCK 2 ADMINISTRATION STOREY 1 WALL 0003WINDOW,RPOINT_BLOCK 2 ADMINISTRATION STOREY 1,2.3469E-004
 Sky Daylight Factors,Intermediate Sky,01/21,DLIGHT_BLOCK 2 ADMINISTRATION STOREY 1,BLOCK 2 ADMINISTRATION STOREY 1_SPACE,BLOCK 2 ADMINISTRATION STOREY 1 WALL 0003WINDOW,RPOINT_BLOCK 2 ADMINISTRATION STOREY 1,1.6112E-004
 Sky Daylight Factors,Overcast Sky,01/21,DLIGHT_BLOCK 2 ADMINISTRATION STOREY 1,BLOCK 2 ADMINISTRATION STOREY 1_SPACE,BLOCK 2 ADMINISTRATION STOREY 1 WALL 0003WINDOW,RPOINT_BLOCK 2 ADMINISTRATION STOREY 1,2.2536E-004
 Sky Daylight Factors,Clear Sky,01/21,DLIGHT_BLOCK 2 ADMINISTRATION STOREY 1,BLOCK 2 ADMINISTRATION STOREY 1_SPACE,BLOCK 2 ADMINISTRATION STOREY 1 WALL 0004WINDOW,RPOINT_BLOCK 2 ADMINISTRATION STOREY 1,4.0854E-004
 Sky Daylight Factors,Clear Turbid Sky,01/21,DLIGHT_BLOCK 2 ADMINISTRATION STOREY 1,BLOCK 2 ADMINISTRATION STOREY 1_SPACE,BLOCK 2 ADMINISTRATION STOREY 1 WALL 0004WINDOW,RPOINT_BLOCK 2 ADMINISTRATION STOREY 1,3.1762E-004
 Sky Daylight Factors,Intermediate Sky,01/21,DLIGHT_BLOCK 2 ADMINISTRATION STOREY 1,BLOCK 2 ADMINISTRATION STOREY 1_SPACE,BLOCK 2 ADMINISTRATION STOREY 1 WALL 0004WINDOW,RPOINT_BLOCK 2 ADMINISTRATION STOREY 1,2.1568E-004
 Sky Daylight Factors,Overcast Sky,01/21,DLIGHT_BLOCK 2 ADMINISTRATION STOREY 1,BLOCK 2 ADMINISTRATION STOREY 1_SPACE,BLOCK 2 ADMINISTRATION STOREY 1 WALL 0004WINDOW,RPOINT_BLOCK 2 ADMINISTRATION STOREY 1,3.0978E-004
 Sky Daylight Factors,Clear Sky,01/21,DLIGHT_BLOCK 2 ADMINISTRATION STOREY 1,BLOCK 2 ADMINISTRATION STOREY 1_SPACE,BLOCK 2 ADMINISTRATION STOREY 1 WALL 0005WINDOW,RPOINT_BLOCK 2 ADMINISTRATION STOREY 1,2.8605E-004
 Sky Daylight Factors,Clear Turbid Sky,01/21,DLIGHT_BLOCK 2 ADMINISTRATION STOREY 1,BLOCK 2 ADMINISTRATION STOREY 1_SPACE,BLOCK 2 ADMINISTRATION STOREY 1 WALL 0005WINDOW,RPOINT_BLOCK 2 ADMINISTRATION STOREY 1,2.2554E-004
 Sky Daylight Factors,Intermediate Sky,01/21,DLIGHT_BLOCK 2 ADMINISTRATION STOREY 1,BLOCK 2 ADMINISTRATION STOREY 1_SPACE,BLOCK 2 ADMINISTRATION STOREY 1 WALL 0005WINDOW,RPOINT_BLOCK 2 ADMINISTRATION STOREY 1,1.6530E-004
 Sky Daylight Factors,Overcast Sky,01/21,DLIGHT_BLOCK 2 ADMINISTRATION STOREY 1,BLOCK 2 ADMINISTRATION STOREY 1_SPACE,BLOCK 2 ADMINISTRATION STOREY 1 WALL 0005WINDOW,RPOINT_BLOCK 2 ADMINISTRATION STOREY 1,2.3997E-004
 Sky Daylight Factors,Clear Sky,01/21,DLIGHT_BLOCK 2 ADMINISTRATION STOREY 1,BLOCK 2 ADMINISTRATION STOREY 1_SPACE,BLOCK 2 ADMINISTRATION STOREY 1 WALL 0006WINDOW,RPOINT_BLOCK 2 ADMINISTRATION STOREY 1,2.8303E-004
 Sky Daylight Factors,Clear Turbid Sky,01/21,DLIGHT_BLOCK 2 ADMINISTRATION STOREY 1,BLOCK 2 ADMINISTRATION STOREY 1_SPACE,BLOCK 2 ADMINISTRATION STOREY 1 WALL 0006WINDOW,RPOINT_BLOCK 2 ADMINISTRATION STOREY 1,2.2592E-004
 Sky Daylight Factors,Intermediate Sky,01/21,DLIGHT_BLOCK 2 ADMINISTRATION STOREY 1,BLOCK 2 ADMINISTRATION STOREY 1_SPACE,BLOCK 2 ADMINISTRATION STOREY 1 WALL 0006WINDOW,RPOINT_BLOCK 2 ADMINISTRATION STOREY 1,1.7616E-004
 Sky Daylight Factors,Overcast Sky,01/21,DLIGHT_BLOCK 2 ADMINISTRATION STOREY 1,BLOCK 2 ADMINISTRATION STOREY 1_SPACE,BLOCK 2 ADMINISTRATION STOREY 1 WALL 0006WINDOW,RPOINT_BLOCK 2 ADMINISTRATION STOREY 1,2.5427E-004
 Sky Daylight Factors,Clear Sky,01/21,DLIGHT_BLOCK 2 ADMINISTRATION STOREY 1,BLOCK 2 ADMINISTRATION STOREY 1_SPACE,BLOCK 2 ADMINISTRATION STOREY 1 WALL 0007WINDOW,RPOINT_BLOCK 2 ADMINISTRATION STOREY 1,3.7847E-004
 Sky Daylight Factors,Clear Turbid Sky,01/21,DLIGHT_BLOCK 2 ADMINISTRATION STOREY 1,BLOCK 2 ADMINISTRATION STOREY 1_SPACE,BLOCK 2 ADMINISTRATION STOREY 1 WALL 0007WINDOW,RPOINT_BLOCK 2 ADMINISTRATION STOREY 1,3.0819E-004
 Sky Daylight Factors,Intermediate Sky,01/21,DLIGHT_BLOCK 2 ADMINISTRATION STOREY 1,BLOCK 2 ADMINISTRATION STOREY 1_SPACE,BLOCK 2 ADMINISTRATION STOREY 1 WALL 0007WINDOW,RPOINT_BLOCK 2 ADMINISTRATION STOREY 1,2.6432E-004
 Sky Daylight Factors,Overcast Sky,01/21,DLIGHT_BLOCK 2 ADMINISTRATION STOREY 1,BLOCK 2 ADMINISTRATION STOREY 1_SPACE,BLOCK 2 ADMINISTRATION STOREY 1 WALL 0007WINDOW,RPOINT_BLOCK 2 ADMINISTRATION STOREY 1,3.5198E-004
 Sky Daylight Factors,Clear Sky,01/21,DLIGHT_BLOCK 2 ADMINISTRATION STOREY 1,BLOCK 2 ADMINISTRATION STOREY 1_SPACE,BLOCK 2 ADMINISTRATION STOREY 1 WALL 0008WINDOW,RPOINT_BLOCK 2 ADMINISTRATION STOREY 1,1.0464E-004
 Sky Daylight Factors,Clear Turbid Sky,01/21,DLIGHT_BLOCK 2 ADMINISTRATION STOREY 1,BLOCK 2 ADMINISTRATION STOREY 1_SPACE,BLOCK 2 ADMINISTRATION STOREY 1 WALL 0008WINDOW,RPOINT_BLOCK 2 ADMINISTRATION STOREY 1,9.0558E-005
 Sky Daylight Factors,Intermediate Sky,01/21,DLIGHT_BLOCK 2 ADMINISTRATION STOREY 1,BLOCK 2 ADMINISTRATION STOREY 1_SPACE,BLOCK 2 ADMINISTRATION STOREY 1 WALL 0008WINDOW,RPOINT_BLOCK 2 ADMINISTRATION STOREY 1,8.8117E-005
 Sky Daylight Factors,Overcast Sky,01/21,DLIGHT_BLOCK 2 ADMINISTRATION STOREY 1,BLOCK 2 ADMINISTRATION STOREY 1_SPACE,BLOCK 2 ADMINISTRATION STOREY 1 WALL 0008WINDOW,RPOINT_BLOCK 2 ADMINISTRATION STOREY 1,9.0005E-005
 Sky Daylight Factors,Clear Sky,01/21,DLIGHT_BLOCK 2 ADMINISTRATION STOREY 1,BLOCK 2 ADMINISTRATION STOREY 1_SPACE,BLOCK 2 ADMINISTRATION STOREY 1 WALL 0009WINDOW,RPOINT_BLOCK 2 ADMINISTRATION STOREY 1,2.8798E-004
 Sky Daylight Factors,Clear Turbid Sky,01/21,DLIGHT_BLOCK 2 ADMINISTRATION STOREY 1,BLOCK 2 ADMINISTRATION STOREY 1_SPACE,BLOCK 2 ADMINISTRATION STOREY 1 WALL 0009WINDOW,RPOINT_BLOCK 2 ADMINISTRATION STOREY 1,2.7675E-004
 Sky Daylight Factors,Intermediate Sky,01/21,DLIGHT_BLOCK 2 ADMINISTRATION STOREY 1,BLOCK 2 ADMINISTRATION STOREY 1_SPACE,BLOCK 2 ADMINISTRATION STOREY 1 WALL 0009WINDOW,RPOINT_BLOCK 2 ADMINISTRATION STOREY 1,2.4574E-004
 Sky Daylight Factors,Overcast Sky,01/21,DLIGHT_BLOCK 2 ADMINISTRATION STOREY 1,BLOCK 2 ADMINISTRATION STOREY 1_SPACE,BLOCK 2 ADMINISTRATION STOREY 1 WALL 0009WINDOW,RPOINT_BLOCK 2 ADMINISTRATION STOREY 1,1.8033E-004
 Sky Daylight Factors,Clear Sky,01/21,DLIGHT_BLOCK 2 ADMINISTRATION STOREY 1,BLOCK 2 ADMINISTRATION STOREY 1_SPACE,BLOCK 2 ADMINISTRATION STOREY 1 WALL 0010WINDOW,RPOINT_BLOCK 2 ADMINISTRATION STOREY 1,1.0251E-003
 Sky Daylight Factors,Clear Turbid Sky,01/21,DLIGHT_BLOCK 2 ADMINISTRATION STOREY 1,BLOCK 2 ADMINISTRATION STOREY 1_SPACE,BLOCK 2 ADMINISTRATION STOREY 1 WALL 0010WINDOW,RPOINT_BLOCK 2 ADMINISTRATION STOREY 1,1.0533E-003
 Sky Daylight Factors,Intermediate Sky,01/21,DLIGHT_BLOCK 2 ADMINISTRATION STOREY 1,BLOCK 2 ADMINISTRATION STOREY 1_SPACE,BLOCK 2 ADMINISTRATION STOREY 1 WALL 0010WINDOW,RPOINT_BLOCK 2 ADMINISTRATION STOREY 1,7.9868E-004
 Sky Daylight Factors,Overcast Sky,01/21,DLIGHT_BLOCK 2 ADMINISTRATION STOREY 1,BLOCK 2 ADMINISTRATION STOREY 1_SPACE,BLOCK 2 ADMINISTRATION STOREY 1 WALL 0010WINDOW,RPOINT_BLOCK 2 ADMINISTRATION STOREY 1,4.4984E-004
 Sky Daylight Factors,Clear Sky,01/21,DLIGHT_BLOCK 2 ADMINISTRATION STOREY 1,BLOCK 2 ADMINISTRATION STOREY 1_SPACE,BLOCK 2 ADMINISTRATION STOREY 1 WALL 0011WINDOW,RPOINT_BLOCK 2 ADMINISTRATION STOREY 1,2.0699E-003
 Sky Daylight Factors,Clear Turbid Sky,01/21,DLIGHT_BLOCK 2 ADMINISTRATION STOREY 1,BLOCK 2 ADMINISTRATION STOREY 1_SPACE,BLOCK 2 ADMINISTRATION STOREY 1 WALL 0011WINDOW,RPOINT_BLOCK 2 ADMINISTRATION STOREY 1,2.1572E-003
 Sky Daylight Factors,Intermediate Sky,01/21,DLIGHT_BLOCK 2 ADMINISTRATION STOREY 1,BLOCK 2 ADMINISTRATION STOREY 1_SPACE,BLOCK 2 ADMINISTRATION STOREY 1 WALL 0011WINDOW,RPOINT_BLOCK 2 ADMINISTRATION STOREY 1,1.4559E-003
 Sky Daylight Factors,Overcast Sky,01/21,DLIGHT_BLOCK 2 ADMINISTRATION STOREY 1,BLOCK 2 ADMINISTRATION STOREY 1_SPACE,BLOCK 2 ADMINISTRATION STOREY 1 WALL 0011WINDOW,RPOINT_BLOCK 2 ADMINISTRATION STOREY 1,6.9703E-004
 Sky Daylight Factors,Clear Sky,01/21,DLIGHT_BLOCK 2 ADMINISTRATION STOREY 1,BLOCK 2 ADMINISTRATION STOREY 1_SPACE,BLOCK 2 ADMINISTRATION STOREY 1 WALL 0012WINDOW,RPOINT_BLOCK 2 ADMINISTRATION STOREY 1,1.1068E-003
 Sky Daylight Factors,Clear Turbid Sky,01/21,DLIGHT_BLOCK 2 ADMINISTRATION STOREY 1,BLOCK 2 ADMINISTRATION STOREY 1_SPACE,BLOCK 2 ADMINISTRATION STOREY 1 WALL 0012WINDOW,RPOINT_BLOCK 2 ADMINISTRATION STOREY 1,1.1749E-003
 Sky Daylight Factors,Intermediate Sky,01/21,DLIGHT_BLOCK 2 ADMINISTRATION STOREY 1,BLOCK 2 ADMINISTRATION STOREY 1_SPACE,BLOCK 2 ADMINISTRATION STOREY 1 WALL 0012WINDOW,RPOINT_BLOCK 2 ADMINISTRATION STOREY 1,7.5100E-004
 Sky Daylight Factors,Overcast Sky,01/21,DLIGHT_BLOCK 2 ADMINISTRATION STOREY 1,BLOCK 2 ADMINISTRATION STOREY 1_SPACE,BLOCK 2 ADMINISTRATION STOREY 1 WALL 0012WINDOW,RPOINT_BLOCK 2 ADMINISTRATION STOREY 1,3.4520E-004
 Sky Daylight Factors,Clear Sky,01/21,DLIGHT_BLOCK 2 ADMINISTRATION STOREY 1,BLOCK 2 ADMINISTRATION STOREY 1_SPACE,BLOCK 2 ADMINISTRATION STOREY 1 WALL 0013WINDOW,RPOINT_BLOCK 2 ADMINISTRATION STOREY 1,9.1642E-004
 Sky Daylight Factors,Clear Turbid Sky,01/21,DLIGHT_BLOCK 2 ADMINISTRATION STOREY 1,BLOCK 2 ADMINISTRATION STOREY 1_SPACE,BLOCK 2 ADMINISTRATION STOREY 1 WALL 0013WINDOW,RPOINT_BLOCK 2 ADMINISTRATION STOREY 1,9.7430E-004
 Sky Daylight Factors,Intermediate Sky,01/21,DLIGHT_BLOCK 2 ADMINISTRATION STOREY 1,BLOCK 2 ADMINISTRATION STOREY 1_SPACE,BLOCK 2 ADMINISTRATION STOREY 1 WALL 0013WINDOW,RPOINT_BLOCK 2 ADMINISTRATION STOREY 1,6.6040E-004
 Sky Daylight Factors,Overcast Sky,01/21,DLIGHT_BLOCK 2 ADMINISTRATION STOREY 1,BLOCK 2 ADMINISTRATION STOREY 1_SPACE,BLOCK 2 ADMINISTRATION STOREY 1 WALL 0013WINDOW,RPOINT_BLOCK 2 ADMINISTRATION STOREY 1,3.1423E-004
 Sky Daylight Factors,Clear Sky,01/21,DLIGHT_BLOCK 2 ADMINISTRATION STOREY 1,BLOCK 2 ADMINISTRATION STOREY 1_SPACE,BLOCK 2 ADMINISTRATION STOREY 1 WALL 0014WINDOW,RPOINT_BLOCK 2 ADMINISTRATION STOREY 1,5.0029E-004
 Sky Daylight Factors,Clear Turbid Sky,01/21,DLIGHT_BLOCK 2 ADMINISTRATION STOREY 1,BLOCK 2 ADMINISTRATION STOREY 1_SPACE,BLOCK 2 ADMINISTRATION STOREY 1 WALL 0014WINDOW,RPOINT_BLOCK 2 ADMINISTRATION STOREY 1,5.3175E-004
 Sky Daylight Factors,Intermediate Sky,01/21,DLIGHT_BLOCK 2 ADMINISTRATION STOREY 1,BLOCK 2 ADMINISTRATION STOREY 1_SPACE,BLOCK 2 ADMINISTRATION STOREY 1 WALL 0014WINDOW,RPOINT_BLOCK 2 ADMINISTRATION STOREY 1,3.7131E-004
 Sky Daylight Factors,Overcast Sky,01/21,DLIGHT_BLOCK 2 ADMINISTRATION STOREY 1,BLOCK 2 ADMINISTRATION STOREY 1_SPACE,BLOCK 2 ADMINISTRATION STOREY 1 WALL 0014WINDOW,RPOINT_BLOCK 2 ADMINISTRATION STOREY 1,1.8220E-004
 Sky Daylight Factors,Clear Sky,01/21,DLIGHT_BLOCK 2 ADMINISTRATION STOREY 1,BLOCK 2 ADMINISTRATION STOREY 1_SPACE,BLOCK 2 ADMINISTRATION STOREY 1 WALL 0015WINDOW,RPOINT_BLOCK 2 ADMINISTRATION STOREY 1,4.4541E-004
 Sky Daylight Factors,Clear Turbid Sky,01/21,DLIGHT_BLOCK 2 ADMINISTRATION STOREY 1,BLOCK 2 ADMINISTRATION STOREY 1_SPACE,BLOCK 2 ADMINISTRATION STOREY 1 WALL 0015WINDOW,RPOINT_BLOCK 2 ADMINISTRATION STOREY 1,4.6890E-004
 Sky Daylight Factors,Intermediate Sky,01/21,DLIGHT_BLOCK 2 ADMINISTRATION STOREY 1,BLOCK 2 ADMINISTRATION STOREY 1_SPACE,BLOCK 2 ADMINISTRATION STOREY 1 WALL 0015WINDOW,RPOINT_BLOCK 2 ADMINISTRATION STOREY 1,3.3904E-004
 Sky Daylight Factors,Overcast Sky,01/21,DLIGHT_BLOCK 2 ADMINISTRATION STOREY 1,BLOCK 2 ADMINISTRATION STOREY 1_SPACE,BLOCK 2 ADMINISTRATION STOREY 1 WALL 0015WINDOW,RPOINT_BLOCK 2 ADMINISTRATION STOREY 1,1.7660E-004
 Sky Daylight Factors,Clear Sky,01/21,DLIGHT_BLOCK 2 ADMINISTRATION STOREY 1,BLOCK 2 ADMINISTRATION STOREY 1_SPACE,BLOCK 2 ADMINISTRATION STOREY 1 WALL 0016WINDOW,RPOINT_BLOCK 2 ADMINISTRATION STOREY 1,3.9389E-004
 Sky Daylight Factors,Clear Turbid Sky,01/21,DLIGHT_BLOCK 2 ADMINISTRATION STOREY 1,BLOCK 2 ADMINISTRATION STOREY 1_SPACE,BLOCK 2 ADMINISTRATION STOREY 1 WALL 0016WINDOW,RPOINT_BLOCK 2 ADMINISTRATION STOREY 1,4.0936E-004
 Sky Daylight Factors,Intermediate Sky,01/21,DLIGHT_BLOCK 2 ADMINISTRATION STOREY 1,BLOCK 2 ADMINISTRATION STOREY 1_SPACE,BLOCK 2 ADMINISTRATION STOREY 1 WALL 0016WINDOW,RPOINT_BLOCK 2 ADMINISTRATION STOREY 1,3.0821E-004
 Sky Daylight Factors,Overcast Sky,01/21,DLIGHT_BLOCK 2 ADMINISTRATION STOREY 1,BLOCK 2 ADMINISTRATION STOREY 1_SPACE,BLOCK 2 ADMINISTRATION STOREY 1 WALL 0016WINDOW,RPOINT_BLOCK 2 ADMINISTRATION STOREY 1,1.7194E-004
 Sky Daylight Factors,Clear Sky,01/21,DLIGHT_BLOCK 2 ADMINISTRATION STOREY 1,BLOCK 2 ADMINISTRATION STOREY 1_SPACE,BLOCK 2 ADMINISTRATION STOREY 1 WALL 0017WINDOW,RPOINT_BLOCK 2 ADMINISTRATION STOREY 1,1.7800E-004
 Sky Daylight Factors,Clear Turbid Sky,01/21,DLIGHT_BLOCK 2 ADMINISTRATION STOREY 1,BLOCK 2 ADMINISTRATION STOREY 1_SPACE,BLOCK 2 ADMINISTRATION STOREY 1 WALL 0017WINDOW,RPOINT_BLOCK 2 ADMINISTRATION STOREY 1,1.7231E-004
 Sky Daylight Factors,Intermediate Sky,01/21,DLIGHT_BLOCK 2 ADMINISTRATION STOREY 1,BLOCK 2 ADMINISTRATION STOREY 1_SPACE,BLOCK 2 ADMINISTRATION STOREY 1 WALL 0017WINDOW,RPOINT_BLOCK 2 ADMINISTRATION STOREY 1,1.5227E-004
 Sky Daylight Factors,Overcast Sky,01/21,DLIGHT_BLOCK 2 ADMINISTRATION STOREY 1,BLOCK 2 ADMINISTRATION STOREY 1_SPACE,BLOCK 2 ADMINISTRATION STOREY 1 WALL 0017WINDOW,RPOINT_BLOCK 2 ADMINISTRATION STOREY 1,1.0892E-004
 Sky Daylight Factors,Clear Sky,01/21,DLIGHT_BLOCK 2 ADMINISTRATION STOREY 1,BLOCK 2 ADMINISTRATION STOREY 1_SPACE,BLOCK 2 ADMINISTRATION STOREY 1 WALL 0018WINDOW,RPOINT_BLOCK 2 ADMINISTRATION STOREY 1,1.5983E-004
 Sky Daylight Factors,Clear Turbid Sky,01/21,DLIGHT_BLOCK 2 ADMINISTRATION STOREY 1,BLOCK 2 ADMINISTRATION STOREY 1_SPACE,BLOCK 2 ADMINISTRATION STOREY 1 WALL 0018WINDOW,RPOINT_BLOCK 2 ADMINISTRATION STOREY 1,1.4473E-004
 Sky Daylight Factors,Intermediate Sky,01/21,DLIGHT_BLOCK 2 ADMINISTRATION STOREY 1,BLOCK 2 ADMINISTRATION STOREY 1_SPACE,BLOCK 2 ADMINISTRATION STOREY 1 WALL 0018WINDOW,RPOINT_BLOCK 2 ADMINISTRATION STOREY 1,1.4012E-004
 Sky Daylight Factors,Overcast Sky,01/21,DLIGHT_BLOCK 2 ADMINISTRATION STOREY 1,BLOCK 2 ADMINISTRATION STOREY 1_SPACE,BLOCK 2 ADMINISTRATION STOREY 1 WALL 0018WINDOW,RPOINT_BLOCK 2 ADMINISTRATION STOREY 1,1.2218E-004
 Sky Daylight Factors,Clear Sky,01/21,DLIGHT_BLOCK 2 ADMINISTRATION STOREY 1,BLOCK 2 ADMINISTRATION STOREY 1_SPACE,BLOCK 2 ADMINISTRATION STOREY 1 WALL 0019WINDOW,RPOINT_BLOCK 2 ADMINISTRATION STOREY 1,1.1913E-004
 Sky Daylight Factors,Clear Turbid Sky,01/21,DLIGHT_BLOCK 2 ADMINISTRATION STOREY 1,BLOCK 2 ADMINISTRATION STOREY 1_SPACE,BLOCK 2 ADMINISTRATION STOREY 1 WALL 0019WINDOW,RPOINT_BLOCK 2 ADMINISTRATION STOREY 1,1.0180E-004
 Sky Daylight Factors,Intermediate Sky,01/21,DLIGHT_BLOCK 2 ADMINISTRATION STOREY 1,BLOCK 2 ADMINISTRATION STOREY 1_SPACE,BLOCK 2 ADMINISTRATION STOREY 1 WALL 0019WINDOW,RPOINT_BLOCK 2 ADMINISTRATION STOREY 1,9.8407E-005
 Sky Daylight Factors,Overcast Sky,01/21,DLIGHT_BLOCK 2 ADMINISTRATION STOREY 1,BLOCK 2 ADMINISTRATION STOREY 1_SPACE,BLOCK 2 ADMINISTRATION STOREY 1 WALL 0019WINDOW,RPOINT_BLOCK 2 ADMINISTRATION STOREY 1,1.0466E-004
 Sky Daylight Factors,Clear Sky,01/21,DLIGHT_BLOCK 2 ADMINISTRATION STOREY 1,BLOCK 2 ADMINISTRATION STOREY 1_SPACE,BLOCK 2 ADMINISTRATION STOREY 1 WALL 0020WINDOW,RPOINT_BLOCK 2 ADMINISTRATION STOREY 1,1.3856E-004
 Sky Daylight Factors,Clear Turbid Sky,01/21,DLIGHT_BLOCK 2 ADMINISTRATION STOREY 1,BLOCK 2 ADMINISTRATION STOREY 1_SPACE,BLOCK 2 ADMINISTRATION STOREY 1 WALL 0020WINDOW,RPOINT_BLOCK 2 ADMINISTRATION STOREY 1,1.1600E-004
 Sky Daylight Factors,Intermediate Sky,01/21,DLIGHT_BLOCK 2 ADMINISTRATION STOREY 1,BLOCK 2 ADMINISTRATION STOREY 1_SPACE,BLOCK 2 ADMINISTRATION STOREY 1 WALL 0020WINDOW,RPOINT_BLOCK 2 ADMINISTRATION STOREY 1,1.0794E-004
 Sky Daylight Factors,Overcast Sky,01/21,DLIGHT_BLOCK 2 ADMINISTRATION STOREY 1,BLOCK 2 ADMINISTRATION STOREY 1_SPACE,BLOCK 2 ADMINISTRATION STOREY 1 WALL 0020WINDOW,RPOINT_BLOCK 2 ADMINISTRATION STOREY 1,1.2328E-004
 Sky Daylight Factors,Clear Sky,01/21,DLIGHT_BLOCK 2 ADMINISTRATION STOREY 1,BLOCK 2 ADMINISTRATION STOREY 1_SPACE,BLOCK 2 ADMINISTRATION STOREY 1 WALL 0021WINDOW,RPOINT_BLOCK 2 ADMINISTRATION STOREY 1,1.8295E-004
 Sky Daylight Factors,Clear Turbid Sky,01/21,DLIGHT_BLOCK 2 ADMINISTRATION STOREY 1,BLOCK 2 ADMINISTRATION STOREY 1_SPACE,BLOCK 2 ADMINISTRATION STOREY 1 WALL 0021WINDOW,RPOINT_BLOCK 2 ADMINISTRATION STOREY 1,1.5033E-004
 Sky Daylight Factors,Intermediate Sky,01/21,DLIGHT_BLOCK 2 ADMINISTRATION STOREY 1,BLOCK 2 ADMINISTRATION STOREY 1_SPACE,BLOCK 2 ADMINISTRATION STOREY 1 WALL 0021WINDOW,RPOINT_BLOCK 2 ADMINISTRATION STOREY 1,1.3219E-004
 Sky Daylight Factors,Overcast Sky,01/21,DLIGHT_BLOCK 2 ADMINISTRATION STOREY 1,BLOCK 2 ADMINISTRATION STOREY 1_SPACE,BLOCK 2 ADMINISTRATION STOREY 1 WALL 0021WINDOW,RPOINT_BLOCK 2 ADMINISTRATION STOREY 1,1.6110E-004
 Sky Daylight Factors,Clear Sky,01/21,DLIGHT_BLOCK 2 ADMINISTRATION STOREY 2,BLOCK 2 ADMINISTRATION STOREY 2_SPACE,BLOCK 2 ADMINISTRATION STOREY 2 WALL 0001WINDOW,RPOINT_BLOCK 2 ADMINISTRATION STOREY 2,2.0717E-004
 Sky Daylight Factors,Clear Turbid Sky,01/21,DLIGHT_BLOCK 2 ADMINISTRATION STOREY 2,BLOCK 2 ADMINISTRATION STOREY 2_SPACE,BLOCK 2 ADMINISTRATION STOREY 2 WALL 0001WINDOW,RPOINT_BLOCK 2 ADMINISTRATION STOREY 2,1.6763E-004
 Sky Daylight Factors,Intermediate Sky,01/21,DLIGHT_BLOCK 2 ADMINISTRATION STOREY 2,BLOCK 2 ADMINISTRATION STOREY 2_SPACE,BLOCK 2 ADMINISTRATION STOREY 2 WALL 0001WINDOW,RPOINT_BLOCK 2 ADMINISTRATION STOREY 2,1.3872E-004
 Sky Daylight Factors,Overcast Sky,01/21,DLIGHT_BLOCK 2 ADMINISTRATION STOREY 2,BLOCK 2 ADMINISTRATION STOREY 2_SPACE,BLOCK 2 ADMINISTRATION STOREY 2 WALL 0001WINDOW,RPOINT_BLOCK 2 ADMINISTRATION STOREY 2,1.7945E-004
 Sky Daylight Factors,Clear Sky,01/21,DLIGHT_BLOCK 2 ADMINISTRATION STOREY 2,BLOCK 2 ADMINISTRATION STOREY 2_SPACE,BLOCK 2 ADMINISTRATION STOREY 2 WALL 0002WINDOW,RPOINT_BLOCK 2 ADMINISTRATION STOREY 2,2.3196E-004
 Sky Daylight Factors,Clear Turbid Sky,01/21,DLIGHT_BLOCK 2 ADMINISTRATION STOREY 2,BLOCK 2 ADMINISTRATION STOREY 2_SPACE,BLOCK 2 ADMINISTRATION STOREY 2 WALL 0002WINDOW,RPOINT_BLOCK 2 ADMINISTRATION STOREY 2,1.8475E-004
 Sky Daylight Factors,Intermediate Sky,01/21,DLIGHT_BLOCK 2 ADMINISTRATION STOREY 2,BLOCK 2 ADMINISTRATION STOREY 2_SPACE,BLOCK 2 ADMINISTRATION STOREY 2 WALL 0002WINDOW,RPOINT_BLOCK 2 ADMINISTRATION STOREY 2,1.4202E-004
 Sky Daylight Factors,Overcast Sky,01/21,DLIGHT_BLOCK 2 ADMINISTRATION STOREY 2,BLOCK 2 ADMINISTRATION STOREY 2_SPACE,BLOCK 2 ADMINISTRATION STOREY 2 WALL 0002WINDOW,RPOINT_BLOCK 2 ADMINISTRATION STOREY 2,1.8927E-004
 Sky Daylight Factors,Clear Sky,01/21,DLIGHT_BLOCK 2 ADMINISTRATION STOREY 2,BLOCK 2 ADMINISTRATION STOREY 2_SPACE,BLOCK 2 ADMINISTRATION STOREY 2 WALL 0003WINDOW,RPOINT_BLOCK 2 ADMINISTRATION STOREY 2,2.8277E-004
 Sky Daylight Factors,Clear Turbid Sky,01/21,DLIGHT_BLOCK 2 ADMINISTRATION STOREY 2,BLOCK 2 ADMINISTRATION STOREY 2_SPACE,BLOCK 2 ADMINISTRATION STOREY 2 WALL 0003WINDOW,RPOINT_BLOCK 2 ADMINISTRATION STOREY 2,2.2144E-004
 Sky Daylight Factors,Intermediate Sky,01/21,DLIGHT_BLOCK 2 ADMINISTRATION STOREY 2,BLOCK 2 ADMINISTRATION STOREY 2_SPACE,BLOCK 2 ADMINISTRATION STOREY 2 WALL 0003WINDOW,RPOINT_BLOCK 2 ADMINISTRATION STOREY 2,1.5620E-004
 Sky Daylight Factors,Overcast Sky,01/21,DLIGHT_BLOCK 2 ADMINISTRATION STOREY 2,BLOCK 2 ADMINISTRATION STOREY 2_SPACE,BLOCK 2 ADMINISTRATION STOREY 2 WALL 0003WINDOW,RPOINT_BLOCK 2 ADMINISTRATION STOREY 2,2.1908E-004
 Sky Daylight Factors,Clear Sky,01/21,DLIGHT_BLOCK 2 ADMINISTRATION STOREY 2,BLOCK 2 ADMINISTRATION STOREY 2_SPACE,BLOCK 2 ADMINISTRATION STOREY 2 WALL 0004WINDOW,RPOINT_BLOCK 2 ADMINISTRATION STOREY 2,3.8510E-004
 Sky Daylight Factors,Clear Turbid Sky,01/21,DLIGHT_BLOCK 2 ADMINISTRATION STOREY 2,BLOCK 2 ADMINISTRATION STOREY 2_SPACE,BLOCK 2 ADMINISTRATION STOREY 2 WALL 0004WINDOW,RPOINT_BLOCK 2 ADMINISTRATION STOREY 2,3.0084E-004
 Sky Daylight Factors,Intermediate Sky,01/21,DLIGHT_BLOCK 2 ADMINISTRATION STOREY 2,BLOCK 2 ADMINISTRATION STOREY 2_SPACE,BLOCK 2 ADMINISTRATION STOREY 2 WALL 0004WINDOW,RPOINT_BLOCK 2 ADMINISTRATION STOREY 2,2.1013E-004
 Sky Daylight Factors,Overcast Sky,01/21,DLIGHT_BLOCK 2 ADMINISTRATION STOREY 2,BLOCK 2 ADMINISTRATION STOREY 2_SPACE,BLOCK 2 ADMINISTRATION STOREY 2 WALL 0004WINDOW,RPOINT_BLOCK 2 ADMINISTRATION STOREY 2,3.0205E-004
 Sky Daylight Factors,Clear Sky,01/21,DLIGHT_BLOCK 2 ADMINISTRATION STOREY 2,BLOCK 2 ADMINISTRATION STOREY 2_SPACE,BLOCK 2 ADMINISTRATION STOREY 2 WALL 0005WINDOW,RPOINT_BLOCK 2 ADMINISTRATION STOREY 2,2.7491E-004
 Sky Daylight Factors,Clear Turbid Sky,01/21,DLIGHT_BLOCK 2 ADMINISTRATION STOREY 2,BLOCK 2 ADMINISTRATION STOREY 2_SPACE,BLOCK 2 ADMINISTRATION STOREY 2 WALL 0005WINDOW,RPOINT_BLOCK 2 ADMINISTRATION STOREY 2,2.1751E-004
 Sky Daylight Factors,Intermediate Sky,01/21,DLIGHT_BLOCK 2 ADMINISTRATION STOREY 2,BLOCK 2 ADMINISTRATION STOREY 2_SPACE,BLOCK 2 ADMINISTRATION STOREY 2 WALL 0005WINDOW,RPOINT_BLOCK 2 ADMINISTRATION STOREY 2,1.6246E-004
 Sky Daylight Factors,Overcast Sky,01/21,DLIGHT_BLOCK 2 ADMINISTRATION STOREY 2,BLOCK 2 ADMINISTRATION STOREY 2_SPACE,BLOCK 2 ADMINISTRATION STOREY 2 WALL 0005WINDOW,RPOINT_BLOCK 2 ADMINISTRATION STOREY 2,2.3626E-004
 Sky Daylight Factors,Clear Sky,01/21,DLIGHT_BLOCK 2 ADMINISTRATION STOREY 2,BLOCK 2 ADMINISTRATION STOREY 2_SPACE,BLOCK 2 ADMINISTRATION STOREY 2 WALL 0006WINDOW,RPOINT_BLOCK 2 ADMINISTRATION STOREY 2,2.7578E-004
 Sky Daylight Factors,Clear Turbid Sky,01/21,DLIGHT_BLOCK 2 ADMINISTRATION STOREY 2,BLOCK 2 ADMINISTRATION STOREY 2_SPACE,BLOCK 2 ADMINISTRATION STOREY 2 WALL 0006WINDOW,RPOINT_BLOCK 2 ADMINISTRATION STOREY 2,2.2061E-004
 Sky Daylight Factors,Intermediate Sky,01/21,DLIGHT_BLOCK 2 ADMINISTRATION STOREY 2,BLOCK 2 ADMINISTRATION STOREY 2_SPACE,BLOCK 2 ADMINISTRATION STOREY 2 WALL 0006WINDOW,RPOINT_BLOCK 2 ADMINISTRATION STOREY 2,1.7396E-004
 Sky Daylight Factors,Overcast Sky,01/21,DLIGHT_BLOCK 2 ADMINISTRATION STOREY 2,BLOCK 2 ADMINISTRATION STOREY 2_SPACE,BLOCK 2 ADMINISTRATION STOREY 2 WALL 0006WINDOW,RPOINT_BLOCK 2 ADMINISTRATION STOREY 2,2.5174E-004
 Sky Daylight Factors,Clear Sky,01/21,DLIGHT_BLOCK 2 ADMINISTRATION STOREY 2,BLOCK 2 ADMINISTRATION STOREY 2_SPACE,BLOCK 2 ADMINISTRATION STOREY 2 WALL 0007WINDOW,RPOINT_BLOCK 2 ADMINISTRATION STOREY 2,3.7177E-004
 Sky Daylight Factors,Clear Turbid Sky,01/21,DLIGHT_BLOCK 2 ADMINISTRATION STOREY 2,BLOCK 2 ADMINISTRATION STOREY 2_SPACE,BLOCK 2 ADMINISTRATION STOREY 2 WALL 0007WINDOW,RPOINT_BLOCK 2 ADMINISTRATION STOREY 2,3.0313E-004
 Sky Daylight Factors,Intermediate Sky,01/21,DLIGHT_BLOCK 2 ADMINISTRATION STOREY 2,BLOCK 2 ADMINISTRATION STOREY 2_SPACE,BLOCK 2 ADMINISTRATION STOREY 2 WALL 0007WINDOW,RPOINT_BLOCK 2 ADMINISTRATION STOREY 2,2.6171E-004
 Sky Daylight Factors,Overcast Sky,01/21,DLIGHT_BLOCK 2 ADMINISTRATION STOREY 2,BLOCK 2 ADMINISTRATION STOREY 2_SPACE,BLOCK 2 ADMINISTRATION STOREY 2 WALL 0007WINDOW,RPOINT_BLOCK 2 ADMINISTRATION STOREY 2,3.4949E-004
 Sky Daylight Factors,Clear Sky,01/21,DLIGHT_BLOCK 2 ADMINISTRATION STOREY 2,BLOCK 2 ADMINISTRATION STOREY 2_SPACE,BLOCK 2 ADMINISTRATION STOREY 2 WALL 0008WINDOW,RPOINT_BLOCK 2 ADMINISTRATION STOREY 2,1.0319E-004
 Sky Daylight Factors,Clear Turbid Sky,01/21,DLIGHT_BLOCK 2 ADMINISTRATION STOREY 2,BLOCK 2 ADMINISTRATION STOREY 2_SPACE,BLOCK 2 ADMINISTRATION STOREY 2 WALL 0008WINDOW,RPOINT_BLOCK 2 ADMINISTRATION STOREY 2,8.9430E-005
 Sky Daylight Factors,Intermediate Sky,01/21,DLIGHT_BLOCK 2 ADMINISTRATION STOREY 2,BLOCK 2 ADMINISTRATION STOREY 2_SPACE,BLOCK 2 ADMINISTRATION STOREY 2 WALL 0008WINDOW,RPOINT_BLOCK 2 ADMINISTRATION STOREY 2,8.7415E-005
 Sky Daylight Factors,Overcast Sky,01/21,DLIGHT_BLOCK 2 ADMINISTRATION STOREY 2,BLOCK 2 ADMINISTRATION STOREY 2_SPACE,BLOCK 2 ADMINISTRATION STOREY 2 WALL 0008WINDOW,RPOINT_BLOCK 2 ADMINISTRATION STOREY 2,8.9445E-005
 Sky Daylight Factors,Clear Sky,01/21,DLIGHT_BLOCK 2 ADMINISTRATION STOREY 2,BLOCK 2 ADMINISTRATION STOREY 2_SPACE,BLOCK 2 ADMINISTRATION STOREY 2 WALL 0009WINDOW,RPOINT_BLOCK 2 ADMINISTRATION STOREY 2,2.8453E-004
 Sky Daylight Factors,Clear Turbid Sky,01/21,DLIGHT_BLOCK 2 ADMINISTRATION STOREY 2,BLOCK 2 ADMINISTRATION STOREY 2_SPACE,BLOCK 2 ADMINISTRATION STOREY 2 WALL 0009WINDOW,RPOINT_BLOCK 2 ADMINISTRATION STOREY 2,2.7396E-004
 Sky Daylight Factors,Intermediate Sky,01/21,DLIGHT_BLOCK 2 ADMINISTRATION STOREY 2,BLOCK 2 ADMINISTRATION STOREY 2_SPACE,BLOCK 2 ADMINISTRATION STOREY 2 WALL 0009WINDOW,RPOINT_BLOCK 2 ADMINISTRATION STOREY 2,2.4374E-004
 Sky Daylight Factors,Overcast Sky,01/21,DLIGHT_BLOCK 2 ADMINISTRATION STOREY 2,BLOCK 2 ADMINISTRATION STOREY 2_SPACE,BLOCK 2 ADMINISTRATION STOREY 2 WALL 0009WINDOW,RPOINT_BLOCK 2 ADMINISTRATION STOREY 2,1.7901E-004
 Sky Daylight Factors,Clear Sky,01/21,DLIGHT_BLOCK 2 ADMINISTRATION STOREY 2,BLOCK 2 ADMINISTRATION STOREY 2_SPACE,BLOCK 2 ADMINISTRATION STOREY 2 WALL 0010WINDOW,RPOINT_BLOCK 2 ADMINISTRATION STOREY 2,1.0080E-003
 Sky Daylight Factors,Clear Turbid Sky,01/21,DLIGHT_BLOCK 2 ADMINISTRATION STOREY 2,BLOCK 2 ADMINISTRATION STOREY 2_SPACE,BLOCK 2 ADMINISTRATION STOREY 2 WALL 0010WINDOW,RPOINT_BLOCK 2 ADMINISTRATION STOREY 2,1.0386E-003
 Sky Daylight Factors,Intermediate Sky,01/21,DLIGHT_BLOCK 2 ADMINISTRATION STOREY 2,BLOCK 2 ADMINISTRATION STOREY 2_SPACE,BLOCK 2 ADMINISTRATION STOREY 2 WALL 0010WINDOW,RPOINT_BLOCK 2 ADMINISTRATION STOREY 2,7.8758E-004
 Sky Daylight Factors,Overcast Sky,01/21,DLIGHT_BLOCK 2 ADMINISTRATION STOREY 2,BLOCK 2 ADMINISTRATION STOREY 2_SPACE,BLOCK 2 ADMINISTRATION STOREY 2 WALL 0010WINDOW,RPOINT_BLOCK 2 ADMINISTRATION STOREY 2,4.4427E-004
 Sky Daylight Factors,Clear Sky,01/21,DLIGHT_BLOCK 2 ADMINISTRATION STOREY 2,BLOCK 2 ADMINISTRATION STOREY 2_SPACE,BLOCK 2 ADMINISTRATION STOREY 2 WALL 0011WINDOW,RPOINT_BLOCK 2 ADMINISTRATION STOREY 2,1.9703E-003
 Sky Daylight Factors,Clear Turbid Sky,01/21,DLIGHT_BLOCK 2 ADMINISTRATION STOREY 2,BLOCK 2 ADMINISTRATION STOREY 2_SPACE,BLOCK 2 ADMINISTRATION STOREY 2 WALL 0011WINDOW,RPOINT_BLOCK 2 ADMINISTRATION STOREY 2,2.0588E-003
 Sky Daylight Factors,Intermediate Sky,01/21,DLIGHT_BLOCK 2 ADMINISTRATION STOREY 2,BLOCK 2 ADMINISTRATION STOREY 2_SPACE,BLOCK 2 ADMINISTRATION STOREY 2 WALL 0011WINDOW,RPOINT_BLOCK 2 ADMINISTRATION STOREY 2,1.4016E-003
 Sky Daylight Factors,Overcast Sky,01/21,DLIGHT_BLOCK 2 ADMINISTRATION STOREY 2,BLOCK 2 ADMINISTRATION STOREY 2_SPACE,BLOCK 2 ADMINISTRATION STOREY 2 WALL 0011WINDOW,RPOINT_BLOCK 2 ADMINISTRATION STOREY 2,6.7847E-004
 Sky Daylight Factors,Clear Sky,01/21,DLIGHT_BLOCK 2 ADMINISTRATION STOREY 2,BLOCK 2 ADMINISTRATION STOREY 2_SPACE,BLOCK 2 ADMINISTRATION STOREY 2 WALL 0012WINDOW,RPOINT_BLOCK 2 ADMINISTRATION STOREY 2,1.0531E-003
 Sky Daylight Factors,Clear Turbid Sky,01/21,DLIGHT_BLOCK 2 ADMINISTRATION STOREY 2,BLOCK 2 ADMINISTRATION STOREY 2_SPACE,BLOCK 2 ADMINISTRATION STOREY 2 WALL 0012WINDOW,RPOINT_BLOCK 2 ADMINISTRATION STOREY 2,1.1190E-003
 Sky Daylight Factors,Intermediate Sky,01/21,DLIGHT_BLOCK 2 ADMINISTRATION STOREY 2,BLOCK 2 ADMINISTRATION STOREY 2_SPACE,BLOCK 2 ADMINISTRATION STOREY 2 WALL 0012WINDOW,RPOINT_BLOCK 2 ADMINISTRATION STOREY 2,7.2511E-004
 Sky Daylight Factors,Overcast Sky,01/21,DLIGHT_BLOCK 2 ADMINISTRATION STOREY 2,BLOCK 2 ADMINISTRATION STOREY 2_SPACE,BLOCK 2 ADMINISTRATION STOREY 2 WALL 0012WINDOW,RPOINT_BLOCK 2 ADMINISTRATION STOREY 2,3.3760E-004
 Sky Daylight Factors,Clear Sky,01/21,DLIGHT_BLOCK 2 ADMINISTRATION STOREY 2,BLOCK 2 ADMINISTRATION STOREY 2_SPACE,BLOCK 2 ADMINISTRATION STOREY 2 WALL 0013WINDOW,RPOINT_BLOCK 2 ADMINISTRATION STOREY 2,8.9320E-004
 Sky Daylight Factors,Clear Turbid Sky,01/21,DLIGHT_BLOCK 2 ADMINISTRATION STOREY 2,BLOCK 2 ADMINISTRATION STOREY 2_SPACE,BLOCK 2 ADMINISTRATION STOREY 2 WALL 0013WINDOW,RPOINT_BLOCK 2 ADMINISTRATION STOREY 2,9.5114E-004
 Sky Daylight Factors,Intermediate Sky,01/21,DLIGHT_BLOCK 2 ADMINISTRATION STOREY 2,BLOCK 2 ADMINISTRATION STOREY 2_SPACE,BLOCK 2 ADMINISTRATION STOREY 2 WALL 0013WINDOW,RPOINT_BLOCK 2 ADMINISTRATION STOREY 2,6.4799E-004
 Sky Daylight Factors,Overcast Sky,01/21,DLIGHT_BLOCK 2 ADMINISTRATION STOREY 2,BLOCK 2 ADMINISTRATION STOREY 2_SPACE,BLOCK 2 ADMINISTRATION STOREY 2 WALL 0013WINDOW,RPOINT_BLOCK 2 ADMINISTRATION STOREY 2,3.1022E-004
 Sky Daylight Factors,Clear Sky,01/21,DLIGHT_BLOCK 2 ADMINISTRATION STOREY 2,BLOCK 2 ADMINISTRATION STOREY 2_SPACE,BLOCK 2 ADMINISTRATION STOREY 2 WALL 0014WINDOW,RPOINT_BLOCK 2 ADMINISTRATION STOREY 2,4.9312E-004
 Sky Daylight Factors,Clear Turbid Sky,01/21,DLIGHT_BLOCK 2 ADMINISTRATION STOREY 2,BLOCK 2 ADMINISTRATION STOREY 2_SPACE,BLOCK 2 ADMINISTRATION STOREY 2 WALL 0014WINDOW,RPOINT_BLOCK 2 ADMINISTRATION STOREY 2,5.2496E-004
 Sky Daylight Factors,Intermediate Sky,01/21,DLIGHT_BLOCK 2 ADMINISTRATION STOREY 2,BLOCK 2 ADMINISTRATION STOREY 2_SPACE,BLOCK 2 ADMINISTRATION STOREY 2 WALL 0014WINDOW,RPOINT_BLOCK 2 ADMINISTRATION STOREY 2,3.6707E-004
 Sky Daylight Factors,Overcast Sky,01/21,DLIGHT_BLOCK 2 ADMINISTRATION STOREY 2,BLOCK 2 ADMINISTRATION STOREY 2_SPACE,BLOCK 2 ADMINISTRATION STOREY 2 WALL 0014WINDOW,RPOINT_BLOCK 2 ADMINISTRATION STOREY 2,1.8065E-004
 Sky Daylight Factors,Clear Sky,01/21,DLIGHT_BLOCK 2 ADMINISTRATION STOREY 2,BLOCK 2 ADMINISTRATION STOREY 2_SPACE,BLOCK 2 ADMINISTRATION STOREY 2 WALL 0015WINDOW,RPOINT_BLOCK 2 ADMINISTRATION STOREY 2,4.4020E-004
 Sky Daylight Factors,Clear Turbid Sky,01/21,DLIGHT_BLOCK 2 ADMINISTRATION STOREY 2,BLOCK 2 ADMINISTRATION STOREY 2_SPACE,BLOCK 2 ADMINISTRATION STOREY 2 WALL 0015WINDOW,RPOINT_BLOCK 2 ADMINISTRATION STOREY 2,4.6413E-004
 Sky Daylight Factors,Intermediate Sky,01/21,DLIGHT_BLOCK 2 ADMINISTRATION STOREY 2,BLOCK 2 ADMINISTRATION STOREY 2_SPACE,BLOCK 2 ADMINISTRATION STOREY 2 WALL 0015WINDOW,RPOINT_BLOCK 2 ADMINISTRATION STOREY 2,3.3579E-004
 Sky Daylight Factors,Overcast Sky,01/21,DLIGHT_BLOCK 2 ADMINISTRATION STOREY 2,BLOCK 2 ADMINISTRATION STOREY 2_SPACE,BLOCK 2 ADMINISTRATION STOREY 2 WALL 0015WINDOW,RPOINT_BLOCK 2 ADMINISTRATION STOREY 2,1.7530E-004
 Sky Daylight Factors,Clear Sky,01/21,DLIGHT_BLOCK 2 ADMINISTRATION STOREY 2,BLOCK 2 ADMINISTRATION STOREY 2_SPACE,BLOCK 2 ADMINISTRATION STOREY 2 WALL 0016WINDOW,RPOINT_BLOCK 2 ADMINISTRATION STOREY 2,3.9000E-004
 Sky Daylight Factors,Clear Turbid Sky,01/21,DLIGHT_BLOCK 2 ADMINISTRATION STOREY 2,BLOCK 2 ADMINISTRATION STOREY 2_SPACE,BLOCK 2 ADMINISTRATION STOREY 2 WALL 0016WINDOW,RPOINT_BLOCK 2 ADMINISTRATION STOREY 2,4.0591E-004
 Sky Daylight Factors,Intermediate Sky,01/21,DLIGHT_BLOCK 2 ADMINISTRATION STOREY 2,BLOCK 2 ADMINISTRATION STOREY 2_SPACE,BLOCK 2 ADMINISTRATION STOREY 2 WALL 0016WINDOW,RPOINT_BLOCK 2 ADMINISTRATION STOREY 2,3.0570E-004
 Sky Daylight Factors,Overcast Sky,01/21,DLIGHT_BLOCK 2 ADMINISTRATION STOREY 2,BLOCK 2 ADMINISTRATION STOREY 2_SPACE,BLOCK 2 ADMINISTRATION STOREY 2 WALL 0016WINDOW,RPOINT_BLOCK 2 ADMINISTRATION STOREY 2,1.7084E-004
 Sky Daylight Factors,Clear Sky,01/21,DLIGHT_BLOCK 2 ADMINISTRATION STOREY 2,BLOCK 2 ADMINISTRATION STOREY 2_SPACE,BLOCK 2 ADMINISTRATION STOREY 2 WALL 0017WINDOW,RPOINT_BLOCK 2 ADMINISTRATION STOREY 2,1.7578E-004
 Sky Daylight Factors,Clear Turbid Sky,01/21,DLIGHT_BLOCK 2 ADMINISTRATION STOREY 2,BLOCK 2 ADMINISTRATION STOREY 2_SPACE,BLOCK 2 ADMINISTRATION STOREY 2 WALL 0017WINDOW,RPOINT_BLOCK 2 ADMINISTRATION STOREY 2,1.7040E-004
 Sky Daylight Factors,Intermediate Sky,01/21,DLIGHT_BLOCK 2 ADMINISTRATION STOREY 2,BLOCK 2 ADMINISTRATION STOREY 2_SPACE,BLOCK 2 ADMINISTRATION STOREY 2 WALL 0017WINDOW,RPOINT_BLOCK 2 ADMINISTRATION STOREY 2,1.5082E-004
 Sky Daylight Factors,Overcast Sky,01/21,DLIGHT_BLOCK 2 ADMINISTRATION STOREY 2,BLOCK 2 ADMINISTRATION STOREY 2_SPACE,BLOCK 2 ADMINISTRATION STOREY 2 WALL 0017WINDOW,RPOINT_BLOCK 2 ADMINISTRATION STOREY 2,1.0821E-004
 Sky Daylight Factors,Clear Sky,01/21,DLIGHT_BLOCK 2 ADMINISTRATION STOREY 2,BLOCK 2 ADMINISTRATION STOREY 2_SPACE,BLOCK 2 ADMINISTRATION STOREY 2 WALL 0018WINDOW,RPOINT_BLOCK 2 ADMINISTRATION STOREY 2,1.5746E-004
 Sky Daylight Factors,Clear Turbid Sky,01/21,DLIGHT_BLOCK 2 ADMINISTRATION STOREY 2,BLOCK 2 ADMINISTRATION STOREY 2_SPACE,BLOCK 2 ADMINISTRATION STOREY 2 WALL 0018WINDOW,RPOINT_BLOCK 2 ADMINISTRATION STOREY 2,1.4274E-004
 Sky Daylight Factors,Intermediate Sky,01/21,DLIGHT_BLOCK 2 ADMINISTRATION STOREY 2,BLOCK 2 ADMINISTRATION STOREY 2_SPACE,BLOCK 2 ADMINISTRATION STOREY 2 WALL 0018WINDOW,RPOINT_BLOCK 2 ADMINISTRATION STOREY 2,1.3860E-004
 Sky Daylight Factors,Overcast Sky,01/21,DLIGHT_BLOCK 2 ADMINISTRATION STOREY 2,BLOCK 2 ADMINISTRATION STOREY 2_SPACE,BLOCK 2 ADMINISTRATION STOREY 2 WALL 0018WINDOW,RPOINT_BLOCK 2 ADMINISTRATION STOREY 2,1.2135E-004
[...]
 Sky Daylight Factors,Intermediate Sky,01/21,DLIGHT_BLOCK 2 ADMINISTRATION STOREY 10,BLOCK 2 ADMINISTRATION STOREY 10_SPACE,BLOCK 2 ADMINISTRATION STOREY 10 WALL 0013WINDOW,RPOINT_BLOCK 2 ADMINISTRATION STOREY 10,5.8458E-004
 Sky Daylight Factors,Overcast Sky,01/21,DLIGHT_BLOCK 2 ADMINISTRATION STOREY 10,BLOCK 2 ADMINISTRATION STOREY 10_SPACE,BLOCK 2 ADMINISTRATION STOREY 10 WALL 0013WINDOW,RPOINT_BLOCK 2 ADMINISTRATION STOREY 10,2.9000E-004
 Sky Daylight Factors,Clear Sky,01/21,DLIGHT_BLOCK 2 ADMINISTRATION STOREY 10,BLOCK 2 ADMINISTRATION STOREY 10_SPACE,BLOCK 2 ADMINISTRATION STOREY 10 WALL 0014WINDOW,RPOINT_BLOCK 2 ADMINISTRATION STOREY 10,4.5636E-004
 Sky Daylight Factors,Clear Turbid Sky,01/21,DLIGHT_BLOCK 2 ADMINISTRATION STOREY 10,BLOCK 2 ADMINISTRATION STOREY 10_SPACE,BLOCK 2 ADMINISTRATION STOREY 10 WALL 0014WINDOW,RPOINT_BLOCK 2 ADMINISTRATION STOREY 10,4.9023E-004
 Sky Daylight Factors,Intermediate Sky,01/21,DLIGHT_BLOCK 2 ADMINISTRATION STOREY 10,BLOCK 2 ADMINISTRATION STOREY 10_SPACE,BLOCK 2 ADMINISTRATION STOREY 10 WALL 0014WINDOW,RPOINT_BLOCK 2 ADMINISTRATION STOREY 10,3.4529E-004
 Sky Daylight Factors,Overcast Sky,01/21,DLIGHT_BLOCK 2 ADMINISTRATION STOREY 10,BLOCK 2 ADMINISTRATION STOREY 10_SPACE,BLOCK 2 ADMINISTRATION STOREY 10 WALL 0014WINDOW,RPOINT_BLOCK 2 ADMINISTRATION STOREY 10,1.7282E-004
 Sky Daylight Factors,Clear Sky,01/21,DLIGHT_BLOCK 2 ADMINISTRATION STOREY 10,BLOCK 2 ADMINISTRATION STOREY 10_SPACE,BLOCK 2 ADMINISTRATION STOREY 10 WALL 0015WINDOW,RPOINT_BLOCK 2 ADMINISTRATION STOREY 10,4.1336E-004
 Sky Daylight Factors,Clear Turbid Sky,01/21,DLIGHT_BLOCK 2 ADMINISTRATION STOREY 10,BLOCK 2 ADMINISTRATION STOREY 10_SPACE,BLOCK 2 ADMINISTRATION STOREY 10 WALL 0015WINDOW,RPOINT_BLOCK 2 ADMINISTRATION STOREY 10,4.3961E-004
 Sky Daylight Factors,Intermediate Sky,01/21,DLIGHT_BLOCK 2 ADMINISTRATION STOREY 10,BLOCK 2 ADMINISTRATION STOREY 10_SPACE,BLOCK 2 ADMINISTRATION STOREY 10 WALL 0015WINDOW,RPOINT_BLOCK 2 ADMINISTRATION STOREY 10,3.1906E-004
 Sky Daylight Factors,Overcast Sky,01/21,DLIGHT_BLOCK 2 ADMINISTRATION STOREY 10,BLOCK 2 ADMINISTRATION STOREY 10_SPACE,BLOCK 2 ADMINISTRATION STOREY 10 WALL 0015WINDOW,RPOINT_BLOCK 2 ADMINISTRATION STOREY 10,1.6871E-004
 Sky Daylight Factors,Clear Sky,01/21,DLIGHT_BLOCK 2 ADMINISTRATION STOREY 10,BLOCK 2 ADMINISTRATION STOREY 10_SPACE,BLOCK 2 ADMINISTRATION STOREY 10 WALL 0016WINDOW,RPOINT_BLOCK 2 ADMINISTRATION STOREY 10,3.6994E-004
 Sky Daylight Factors,Clear Turbid Sky,01/21,DLIGHT_BLOCK 2 ADMINISTRATION STOREY 10,BLOCK 2 ADMINISTRATION STOREY 10_SPACE,BLOCK 2 ADMINISTRATION STOREY 10 WALL 0016WINDOW,RPOINT_BLOCK 2 ADMINISTRATION STOREY 10,3.8814E-004
 Sky Daylight Factors,Intermediate Sky,01/21,DLIGHT_BLOCK 2 ADMINISTRATION STOREY 10,BLOCK 2 ADMINISTRATION STOREY 10_SPACE,BLOCK 2 ADMINISTRATION STOREY 10 WALL 0016WINDOW,RPOINT_BLOCK 2 ADMINISTRATION STOREY 10,2.9279E-004
 Sky Daylight Factors,Overcast Sky,01/21,DLIGHT_BLOCK 2 ADMINISTRATION STOREY 10,BLOCK 2 ADMINISTRATION STOREY 10_SPACE,BLOCK 2 ADMINISTRATION STOREY 10 WALL 0016WINDOW,RPOINT_BLOCK 2 ADMINISTRATION STOREY 10,1.6525E-004
 Sky Daylight Factors,Clear Sky,01/21,DLIGHT_BLOCK 2 ADMINISTRATION STOREY 10,BLOCK 2 ADMINISTRATION STOREY 10_SPACE,BLOCK 2 ADMINISTRATION STOREY 10 WALL 0017WINDOW,RPOINT_BLOCK 2 ADMINISTRATION STOREY 10,1.6429E-004
 Sky Daylight Factors,Clear Turbid Sky,01/21,DLIGHT_BLOCK 2 ADMINISTRATION STOREY 10,BLOCK 2 ADMINISTRATION STOREY 10_SPACE,BLOCK 2 ADMINISTRATION STOREY 10 WALL 0017WINDOW,RPOINT_BLOCK 2 ADMINISTRATION STOREY 10,1.6051E-004
 Sky Daylight Factors,Intermediate Sky,01/21,DLIGHT_BLOCK 2 ADMINISTRATION STOREY 10,BLOCK 2 ADMINISTRATION STOREY 10_SPACE,BLOCK 2 ADMINISTRATION STOREY 10 WALL 0017WINDOW,RPOINT_BLOCK 2 ADMINISTRATION STOREY 10,1.4336E-004
 Sky Daylight Factors,Overcast Sky,01/21,DLIGHT_BLOCK 2 ADMINISTRATION STOREY 10,BLOCK 2 ADMINISTRATION STOREY 10_SPACE,BLOCK 2 ADMINISTRATION STOREY 10 WALL 0017WINDOW,RPOINT_BLOCK 2 ADMINISTRATION STOREY 10,1.0464E-004
 Sky Daylight Factors,Clear Sky,01/21,DLIGHT_BLOCK 2 ADMINISTRATION STOREY 10,BLOCK 2 ADMINISTRATION STOREY 10_SPACE,BLOCK 2 ADMINISTRATION STOREY 10 WALL 0018WINDOW,RPOINT_BLOCK 2 ADMINISTRATION STOREY 10,1.4519E-004
 Sky Daylight Factors,Clear Turbid Sky,01/21,DLIGHT_BLOCK 2 ADMINISTRATION STOREY 10,BLOCK 2 ADMINISTRATION STOREY 10_SPACE,BLOCK 2 ADMINISTRATION STOREY 10 WALL 0018WINDOW,RPOINT_BLOCK 2 ADMINISTRATION STOREY 10,1.3247E-004
 Sky Daylight Factors,Intermediate Sky,01/21,DLIGHT_BLOCK 2 ADMINISTRATION STOREY 10,BLOCK 2 ADMINISTRATION STOREY 10_SPACE,BLOCK 2 ADMINISTRATION STOREY 10 WALL 0018WINDOW,RPOINT_BLOCK 2 ADMINISTRATION STOREY 10,1.3079E-004
 Sky Daylight Factors,Overcast Sky,01/21,DLIGHT_BLOCK 2 ADMINISTRATION STOREY 10,BLOCK 2 ADMINISTRATION STOREY 10_SPACE,BLOCK 2 ADMINISTRATION STOREY 10 WALL 0018WINDOW,RPOINT_BLOCK 2 ADMINISTRATION STOREY 10,1.1713E-004
 Sky Daylight Factors,Clear Sky,01/21,DLIGHT_BLOCK 2 ADMINISTRATION STOREY 10,BLOCK 2 ADMINISTRATION STOREY 10_SPACE,BLOCK 2 ADMINISTRATION STOREY 10 WALL 0019WINDOW,RPOINT_BLOCK 2 ADMINISTRATION STOREY 10,1.0644E-004
 Sky Daylight Factors,Clear Turbid Sky,01/21,DLIGHT_BLOCK 2 ADMINISTRATION STOREY 10,BLOCK 2 ADMINISTRATION STOREY 10_SPACE,BLOCK 2 ADMINISTRATION STOREY 10 WALL 0019WINDOW,RPOINT_BLOCK 2 ADMINISTRATION STOREY 10,9.1428E-005
 Sky Daylight Factors,Intermediate Sky,01/21,DLIGHT_BLOCK 2 ADMINISTRATION STOREY 10,BLOCK 2 ADMINISTRATION STOREY 10_SPACE,BLOCK 2 ADMINISTRATION STOREY 10 WALL 0019WINDOW,RPOINT_BLOCK 2 ADMINISTRATION STOREY 10,9.0733E-005
 Sky Daylight Factors,Overcast Sky,01/21,DLIGHT_BLOCK 2 ADMINISTRATION STOREY 10,BLOCK 2 ADMINISTRATION STOREY 10_SPACE,BLOCK 2 ADMINISTRATION STOREY 10 WALL 0019WINDOW,RPOINT_BLOCK 2 ADMINISTRATION STOREY 10,9.9983E-005
 Sky Daylight Factors,Clear Sky,01/21,DLIGHT_BLOCK 2 ADMINISTRATION STOREY 10,BLOCK 2 ADMINISTRATION STOREY 10_SPACE,BLOCK 2 ADMINISTRATION STOREY 10 WALL 0020WINDOW,RPOINT_BLOCK 2 ADMINISTRATION STOREY 10,1.1950E-004
 Sky Daylight Factors,Clear Turbid Sky,01/21,DLIGHT_BLOCK 2 ADMINISTRATION STOREY 10,BLOCK 2 ADMINISTRATION STOREY 10_SPACE,BLOCK 2 ADMINISTRATION STOREY 10 WALL 0020WINDOW,RPOINT_BLOCK 2 ADMINISTRATION STOREY 10,1.0079E-004
 Sky Daylight Factors,Intermediate Sky,01/21,DLIGHT_BLOCK 2 ADMINISTRATION STOREY 10,BLOCK 2 ADMINISTRATION STOREY 10_SPACE,BLOCK 2 ADMINISTRATION STOREY 10 WALL 0020WINDOW,RPOINT_BLOCK 2 ADMINISTRATION STOREY 10,9.7435E-005
 Sky Daylight Factors,Overcast Sky,01/21,DLIGHT_BLOCK 2 ADMINISTRATION STOREY 10,BLOCK 2 ADMINISTRATION STOREY 10_SPACE,BLOCK 2 ADMINISTRATION STOREY 10 WALL 0020WINDOW,RPOINT_BLOCK 2 ADMINISTRATION STOREY 10,1.1601E-004
 Sky Daylight Factors,Clear Sky,01/21,DLIGHT_BLOCK 2 ADMINISTRATION STOREY 10,BLOCK 2 ADMINISTRATION STOREY 10_SPACE,BLOCK 2 ADMINISTRATION STOREY 10 WALL 0021WINDOW,RPOINT_BLOCK 2 ADMINISTRATION STOREY 10,1.4990E-004
 Sky Daylight Factors,Clear Turbid Sky,01/21,DLIGHT_BLOCK 2 ADMINISTRATION STOREY 10,BLOCK 2 ADMINISTRATION STOREY 10_SPACE,BLOCK 2 ADMINISTRATION STOREY 10 WALL 0021WINDOW,RPOINT_BLOCK 2 ADMINISTRATION STOREY 10,1.2458E-004
 Sky Daylight Factors,Intermediate Sky,01/21,DLIGHT_BLOCK 2 ADMINISTRATION STOREY 10,BLOCK 2 ADMINISTRATION STOREY 10_SPACE,BLOCK 2 ADMINISTRATION STOREY 10 WALL 0021WINDOW,RPOINT_BLOCK 2 ADMINISTRATION STOREY 10,1.1614E-004
 Sky Daylight Factors,Overcast Sky,01/21,DLIGHT_BLOCK 2 ADMINISTRATION STOREY 10,BLOCK 2 ADMINISTRATION STOREY 10_SPACE,BLOCK 2 ADMINISTRATION STOREY 10 WALL 0021WINDOW,RPOINT_BLOCK 2 ADMINISTRATION STOREY 10,1.4845E-004
! <Zone Sizing Information>, Zone Name, Load Type, Calc Des Load {W}, User Des Load {W}, Calc Des Air Flow Rate {m3/s}, User Des Air Flow Rate {m3/s}, Design Day Name, Date/Time of Peak, Temperature at Peak {C}, Humidity Ratio at Peak {kgWater/kgDryAir}, Floor Area {m2}, # Occupants, Calc Outdoor Air Flow Rate {m3/s}, Calc DOAS Heat Addition Rate {W}
 Zone Sizing Information, BLOCK 2 ADMINISTRATION STOREY 0, Cooling, 128380.63989, 128380.63989, 7.89830, 7.89830, ANN CLG .4% CONDNS DB=>MWB, 7/21 09:00:00, 36.37000, 1.74343E-002, 4095.64326, 511.95541, 4.26629, 0.00000
 Zone Sizing Information, BLOCK 2 ADMINISTRATION STOREY 0, Heating, 80224.62534, 80224.62534, 1.85023, 4.26629, ANN HTG 99.6% CONDNS DB, 1/21 09:00:00, -10.00000, 1.60179E-003, 4095.64326, 511.95541, 4.26629, 0.00000
 Zone Sizing Information, BLOCK 2 ADMINISTRATION STOREY 1, Cooling, 218427.12111, 218427.12111, 13.50480, 13.50480, ANN CLG .4% CONDNS DB=>MWB, 7/21 09:00:00, 36.37000, 1.74343E-002, 4095.64326, 511.95541, 4.26629, 0.00000
 Zone Sizing Information, BLOCK 2 ADMINISTRATION STOREY 1, Heating, 209524.98505, 209524.98505, 4.25221, 4.26629, ANN HTG 99.6% CONDNS DB, 1/21 07:00:00, -10.00000, 1.60179E-003, 4095.64326, 511.95541, 4.26629, 0.00000
 Zone Sizing Information, BLOCK 2 ADMINISTRATION STOREY 2, Cooling, 218349.11021, 218349.11021, 13.49994, 13.49994, ANN CLG .4% CONDNS DB=>MWB, 7/21 09:00:00, 36.37000, 1.74343E-002, 4095.64326, 511.95541, 4.26629, 0.00000
 Zone Sizing Information, BLOCK 2 ADMINISTRATION STOREY 2, Heating, 210248.57586, 210248.57586, 4.26746, 4.26746, ANN HTG 99.6% CONDNS DB, 1/21 07:00:00, -10.00000, 1.60179E-003, 4095.64326, 511.95541, 4.26629, 0.00000
 Zone Sizing Information, BLOCK 2 ADMINISTRATION STOREY 3, Cooling, 218250.36639, 218250.36639, 13.49378, 13.49378, ANN CLG .4% CONDNS DB=>MWB, 7/21 09:00:00, 36.37000, 1.74343E-002, 4095.64326, 511.95541, 4.26629, 0.00000
 Zone Sizing Information, BLOCK 2 ADMINISTRATION STOREY 3, Heating, 210789.27509, 210789.27509, 4.27885, 4.27885, ANN HTG 99.6% CONDNS DB, 1/21 07:00:00, -10.00000, 1.60179E-003, 4095.64326, 511.95541, 4.26629, 0.00000
 Zone Sizing Information, BLOCK 2 ADMINISTRATION STOREY 4, Cooling, 218139.38394, 218139.38394, 13.48687, 13.48687, ANN CLG .4% CONDNS DB=>MWB, 7/21 09:00:00, 36.37000, 1.74343E-002, 4095.64326, 511.95541, 4.26629, 0.00000
 Zone Sizing Information, BLOCK 2 ADMINISTRATION STOREY 4, Heating, 211235.72952, 211235.72952, 4.28826, 4.28826, ANN HTG 99.6% CONDNS DB, 1/21 07:00:00, -10.00000, 1.60179E-003, 4095.64326, 511.95541, 4.26629, 0.00000
 Zone Sizing Information, BLOCK 2 ADMINISTRATION STOREY 5, Cooling, 218021.61055, 218021.61055, 13.47953, 13.47953, ANN CLG .4% CONDNS DB=>MWB, 7/21 09:00:00, 36.37000, 1.74343E-002, 4095.64326, 511.95541, 4.26629, 0.00000
 Zone Sizing Information, BLOCK 2 ADMINISTRATION STOREY 5, Heating, 211623.64974, 211623.64974, 4.29643, 4.29643, ANN HTG 99.6% CONDNS DB, 1/21 07:00:00, -10.00000, 1.60179E-003, 4095.64326, 511.95541, 4.26629, 0.00000
 Zone Sizing Information, BLOCK 2 ADMINISTRATION STOREY 6, Cooling, 217900.53822, 217900.53822, 13.47198, 13.47198, ANN CLG .4% CONDNS DB=>MWB, 7/21 09:00:00, 36.37000, 1.74343E-002, 4095.64326, 511.95541, 4.26629, 0.00000
 Zone Sizing Information, BLOCK 2 ADMINISTRATION STOREY 6, Heating, 211970.94704, 211970.94704, 4.30374, 4.30374, ANN HTG 99.6% CONDNS DB, 1/21 07:00:00, -10.00000, 1.60179E-003, 4095.64326, 511.95541, 4.26629, 0.00000
 Zone Sizing Information, BLOCK 2 ADMINISTRATION STOREY 7, Cooling, 217774.91738, 217774.91738, 13.46416, 13.46416, ANN CLG .4% CONDNS DB=>MWB, 7/21 09:00:00, 36.37000, 1.74343E-002, 4095.64326, 511.95541, 4.26629, 0.00000
 Zone Sizing Information, BLOCK 2 ADMINISTRATION STOREY 7, Heating, 212288.39617, 212288.39617, 4.31043, 4.31043, ANN HTG 99.6% CONDNS DB, 1/21 07:00:00, -10.00000, 1.60179E-003, 4095.64326, 511.95541, 4.26629, 0.00000
 Zone Sizing Information, BLOCK 2 ADMINISTRATION STOREY 8, Cooling, 217626.64962, 217626.64962, 13.45492, 13.45492, ANN CLG .4% CONDNS DB=>MWB, 7/21 09:00:00, 36.37000, 1.74343E-002, 4095.64326, 511.95541, 4.26629, 0.00000
 Zone Sizing Information, BLOCK 2 ADMINISTRATION STOREY 8, Heating, 212582.14024, 212582.14024, 4.31662, 4.31662, ANN HTG 99.6% CONDNS DB, 1/21 07:00:00, -10.00000, 1.60179E-003, 4095.64326, 511.95541, 4.26629, 0.00000
 Zone Sizing Information, BLOCK 2 ADMINISTRATION STOREY 9, Cooling, 241515.13845, 241515.13845, 15.15829, 15.15829, ANN CLG .4% CONDNS DB=>MWB, 7/21 17:00:00, 39.07600, 1.74395E-002, 4095.64326, 511.95541, 4.26629, 0.00000
 Zone Sizing Information, BLOCK 2 ADMINISTRATION STOREY 9, Heating, 239236.91050, 239236.91050, 4.87706, 4.87706, ANN HTG 99.6% CONDNS DB, 1/21 07:00:00, -10.00000, 1.60179E-003, 4095.64326, 511.95541, 4.26629, 0.00000
 Zone Sizing Information, BLOCK 2 ADMINISTRATION STOREY 10, Cooling, 240747.78973, 240747.78973, 15.11013, 15.11013, ANN CLG .4% CONDNS DB=>MWB, 7/21 17:00:00, 39.07600, 1.74395E-002, 4095.64326, 511.95541, 4.26629, 0.00000
 Zone Sizing Information, BLOCK 2 ADMINISTRATION STOREY 10, Heating, 239200.85915, 239200.85915, 4.87630, 4.87630, ANN HTG 99.6% CONDNS DB, 1/21 07:00:00, -10.00000, 1.60179E-003, 4095.64326, 511.95541, 4.26629, 0.00000
! <Component Sizing Information>, Component Type, Component Name, Input Field Description, Value
 Component Sizing Information, ZoneHVAC:IdealLoadsAirSystem, BLOCK 2 ADMINISTRATION STOREY 0 IDEAL LOADS AIR SYSTEM, User-Specified Maximum Heating Air Flow Rate [m3/s], 0.00000
 Component Sizing Information, ZoneHVAC:IdealLoadsAirSystem, BLOCK 2 ADMINISTRATION STOREY 0 IDEAL LOADS AIR SYSTEM, User-Specified Maximum Cooling Air Flow Rate [m3/s], 0.00000
 Component Sizing Information, ZoneHVAC:IdealLoadsAirSystem, BLOCK 2 ADMINISTRATION STOREY 1 IDEAL LOADS AIR SYSTEM, User-Specified Maximum Heating Air Flow Rate [m3/s], 0.00000
 Component Sizing Information, ZoneHVAC:IdealLoadsAirSystem, BLOCK 2 ADMINISTRATION STOREY 1 IDEAL LOADS AIR SYSTEM, User-Specified Maximum Cooling Air Flow Rate [m3/s], 0.00000
 Component Sizing Information, ZoneHVAC:IdealLoadsAirSystem, BLOCK 2 ADMINISTRATION STOREY 2 IDEAL LOADS AIR SYSTEM, User-Specified Maximum Heating Air Flow Rate [m3/s], 0.00000
 Component Sizing Information, ZoneHVAC:IdealLoadsAirSystem, BLOCK 2 ADMINISTRATION STOREY 2 IDEAL LOADS AIR SYSTEM, User-Specified Maximum Cooling Air Flow Rate [m3/s], 0.00000
 Component Sizing Information, ZoneHVAC:IdealLoadsAirSystem, BLOCK 2 ADMINISTRATION STOREY 3 IDEAL LOADS AIR SYSTEM, User-Specified Maximum Heating Air Flow Rate [m3/s], 0.00000
 Component Sizing Information, ZoneHVAC:IdealLoadsAirSystem, BLOCK 2 ADMINISTRATION STOREY 3 IDEAL LOADS AIR SYSTEM, User-Specified Maximum Cooling Air Flow Rate [m3/s], 0.00000
 Component Sizing Information, ZoneHVAC:IdealLoadsAirSystem, BLOCK 2 ADMINISTRATION STOREY 4 IDEAL LOADS AIR SYSTEM, User-Specified Maximum Heating Air Flow Rate [m3/s], 0.00000
 Component Sizing Information, ZoneHVAC:IdealLoadsAirSystem, BLOCK 2 ADMINISTRATION STOREY 4 IDEAL LOADS AIR SYSTEM, User-Specified Maximum Cooling Air Flow Rate [m3/s], 0.00000
 Component Sizing Information, ZoneHVAC:IdealLoadsAirSystem, BLOCK 2 ADMINISTRATION STOREY 5 IDEAL LOADS AIR SYSTEM, User-Specified Maximum Heating Air Flow Rate [m3/s], 0.00000
 Component Sizing Information, ZoneHVAC:IdealLoadsAirSystem, BLOCK 2 ADMINISTRATION STOREY 5 IDEAL LOADS AIR SYSTEM, User-Specified Maximum Cooling Air Flow Rate [m3/s], 0.00000
 Component Sizing Information, ZoneHVAC:IdealLoadsAirSystem, BLOCK 2 ADMINISTRATION STOREY 6 IDEAL LOADS AIR SYSTEM, User-Specified Maximum Heating Air Flow Rate [m3/s], 0.00000
 Component Sizing Information, ZoneHVAC:IdealLoadsAirSystem, BLOCK 2 ADMINISTRATION STOREY 6 IDEAL LOADS AIR SYSTEM, User-Specified Maximum Cooling Air Flow Rate [m3/s], 0.00000
 Component Sizing Information, ZoneHVAC:IdealLoadsAirSystem, BLOCK 2 ADMINISTRATION STOREY 7 IDEAL LOADS AIR SYSTEM, User-Specified Maximum Heating Air Flow Rate [m3/s], 0.00000
 Component Sizing Information, ZoneHVAC:IdealLoadsAirSystem, BLOCK 2 ADMINISTRATION STOREY 7 IDEAL LOADS AIR SYSTEM, User-Specified Maximum Cooling Air Flow Rate [m3/s], 0.00000
 Component Sizing Information, ZoneHVAC:IdealLoadsAirSystem, BLOCK 2 ADMINISTRATION STOREY 8 IDEAL LOADS AIR SYSTEM, User-Specified Maximum Heating Air Flow Rate [m3/s], 0.00000
 Component Sizing Information, ZoneHVAC:IdealLoadsAirSystem, BLOCK 2 ADMINISTRATION STOREY 8 IDEAL LOADS AIR SYSTEM, User-Specified Maximum Cooling Air Flow Rate [m3/s], 0.00000
 Component Sizing Information, ZoneHVAC:IdealLoadsAirSystem, BLOCK 2 ADMINISTRATION STOREY 9 IDEAL LOADS AIR SYSTEM, User-Specified Maximum Heating Air Flow Rate [m3/s], 0.00000
 Component Sizing Information, ZoneHVAC:IdealLoadsAirSystem, BLOCK 2 ADMINISTRATION STOREY 9 IDEAL LOADS AIR SYSTEM, User-Specified Maximum Cooling Air Flow Rate [m3/s], 0.00000
 Component Sizing Information, ZoneHVAC:IdealLoadsAirSystem, BLOCK 2 ADMINISTRATION STOREY 10 IDEAL LOADS AIR SYSTEM, User-Specified Maximum Heating Air Flow Rate [m3/s], 0.00000
 Component Sizing Information, ZoneHVAC:IdealLoadsAirSystem, BLOCK 2 ADMINISTRATION STOREY 10 IDEAL LOADS AIR SYSTEM, User-Specified Maximum Cooling Air Flow Rate [m3/s], 0.00000
! <Environment>,Environment Name,Environment Type, Start Date, End Date, Start DayOfWeek, Duration {#days}, Source:Start DayOfWeek,  Use Daylight Saving, Use Holidays, Apply Weekend Holiday Rule,  Use Rain Values, Use Snow Values, Sky Temperature Model
! <Environment:Special Days>, Special Day Name, Special Day Type, Source, Start Date, Duration {#days}
! <Environment:Daylight Saving>, Daylight Saving Indicator, Source, Start Date, End Date
! <Environment:WarmupDays>, NumberofWarmupDays
Environment,RUN_PERIOD_1,WeatherFileRunPeriod,01/01/2007,12/31/2007,Monday,365,Use RunPeriod Specified Day,Yes,No,No,Yes,Yes,Clark and Allen
Environment:Daylight Saving,No,
Environment:WarmupDays,  6
! <Warmup Convergence Information>,Zone Name,Environment Type/Name,Average Warmup Temperature Difference {deltaC},Std Dev Warmup Temperature Difference {deltaC},Max Temperature Pass/Fail Convergence,Min Temperature Pass/Fail Convergence,Average Warmup Load Difference {W},Std Dev Warmup Load Difference {W},Heating Load Pass/Fail Convergence,Cooling Load Pass/Fail Convergence
 Warmup Convergence Information,BLOCK 2 ADMINISTRATION STOREY 0,RunPeriod: RUN_PERIOD_1,0.2702168849,0.7084839183,Pass,Pass,1.1256570125,4.6182212851,Pass,Pass
 Warmup Convergence Information,BLOCK 2 ADMINISTRATION STOREY 1,RunPeriod: RUN_PERIOD_1,0.3203048227,0.9103949705,Pass,Pass,0.5460151129,2.6872095539,Pass,Pass
 Warmup Convergence Information,BLOCK 2 ADMINISTRATION STOREY 2,RunPeriod: RUN_PERIOD_1,0.3207445594,0.9115958363,Pass,Pass,0.6963573181,4.1755869797,Pass,Pass
 Warmup Convergence Information,BLOCK 2 ADMINISTRATION STOREY 3,RunPeriod: RUN_PERIOD_1,0.3210518479,0.9124463388,Pass,Pass,0.9527298007,6.7015346876,Pass,Pass
 Warmup Convergence Information,BLOCK 2 ADMINISTRATION STOREY 4,RunPeriod: RUN_PERIOD_1,0.3213014283,0.9131484618,Pass,Pass,1.5583292020,12.6225918534,Pass,Pass
 Warmup Convergence Information,BLOCK 2 ADMINISTRATION STOREY 5,RunPeriod: RUN_PERIOD_1,0.3215247283,0.9137912944,Pass,Pass,5.1626411924,47.7597689885,Pass,Pass
 Warmup Convergence Information,BLOCK 2 ADMINISTRATION STOREY 6,RunPeriod: RUN_PERIOD_1,0.3217224611,0.9143623990,Pass,Pass,3.7191313129,33.7005485790,Pass,Pass
 Warmup Convergence Information,BLOCK 2 ADMINISTRATION STOREY 7,RunPeriod: RUN_PERIOD_1,0.3219026024,0.9148843181,Pass,Pass,1.6269568962,13.3201634336,Pass,Pass
 Warmup Convergence Information,BLOCK 2 ADMINISTRATION STOREY 8,RunPeriod: RUN_PERIOD_1,0.3220701147,0.9153722182,Pass,Pass,1.0247928806,7.4651381268,Pass,Pass
 Warmup Convergence Information,BLOCK 2 ADMINISTRATION STOREY 9,RunPeriod: RUN_PERIOD_1,0.3224720053,0.9172885750,Pass,Pass,0.3446206048,0.7414421206,Pass,Pass
 Warmup Convergence Information,BLOCK 2 ADMINISTRATION STOREY 10,RunPeriod: RUN_PERIOD_1,0.3226654612,0.9178677047,Pass,Pass,0.3446054114,0.7439371957,Pass,Pass
! <Program Control Information:Threads/Parallel Sims>, Threading Supported,Maximum Number of Threads, Env Set Threads (OMP_NUM_THREADS), EP Env Set Threads (EP_OMP_NUM_THREADS), IDF Set Threads, Number of Threads Used (Interior Radiant Exchange), Number Nominal Surfaces, Number Parallel Sims
Program Control:Threads/Parallel Sims, No,1, N/A, N/A, N/A, N/A, N/A, N/A
End of Data
